Measurement: Infrared, Infrared Data RAW
Mineral: Almandine
Rruff sample: R040168
Ideal chemistry: Fe^2+^_3_Al_2_(SiO_4_)_3_
Locality: Pocos Dos Cavatos, Ceara, Brazil
Source: University of Arizona Mineral Museum
Description: Dark red etched single crystal
Measured chemistry: (Fe^2+^_1.48_Mn_1.47_Ca_0.05_)_Î£=3_Al_2.00_(Si_1.00_O_4_)_3_; trace amounts of Ti and Y
x	intensity
399.193	0.155671
408.835	0.221989
418.477	0.26819
428.12	0.307805
437.762	0.326383
447.404	0.312506
457.047	0.258496
466.689	0.290861
476.331	0.232486
485.974	0.188427
495.616	0.152591
505.258	0.118459
514.901	0.091324
524.543	0.091924
534.185	0.058217
543.828	0.071467
553.47	0.172171
563.112	0.200381
572.755	0.129003
582.397	0.07943
592.039	0.044986
601.682	0.031851
611.324	0.031262
620.966	0.040237
630.609	0.073181
640.251	0.038394
649.893	0.029055
659.536	0.028265
669.178	0.029304
678.82	0.030592
688.463	0.031722
698.105	0.034241
707.747	0.036975
717.39	0.041277
727.032	0.046273
736.674	0.052656
746.317	0.060858
755.959	0.07002
765.601	0.080833
775.244	0.096095
784.886	0.114505
794.528	0.136463
804.171	0.16232
813.813	0.191036
823.455	0.22298
833.098	0.257332
842.74	0.291153
852.382	0.318141
862.025	0.325556
871.667	0.291957
881.309	0.256404
890.952	0.27421
900.594	0.218532
910.236	0.157038
919.879	0.108083
929.521	0.109608
939.163	0.201678
948.806	0.288345
958.448	0.255043
968.09	0.195196
977.733	0.151169
987.375	0.117346
997.017	0.089536
1006.66	0.065635
1016.3	0.044458
1025.94	0.029247
1035.59	0.021869
1045.23	0.017399
1054.87	0.015011
1064.51	0.013256
1074.16	0.011901
1083.8	0.011301
1093.44	0.010444
1103.08	0.009764
1112.72	0.00896
1122.37	0.008706
1132.01	0.008126
1141.65	0.007806
1151.3	0.007263
1160.94	0.006801
1170.58	0.006268
1180.22	0.005879
1189.86	0.005399
1199.51	0.005341
1209.15	0.004904
1218.79	0.004811
1228.43	0.004837
1238.08	0.004635
1247.72	0.00478
1257.36	0.004649
1267	0.004874
1276.64	0.005069
1286.29	0.005268
1295.93	0.005494
1305.57	0.005547
1315.21	0.00598
1324.86	0.005968
1334.5	0.006197
1344.14	0.00646
1353.78	0.006807
1363.43	0.006826
1373.07	0.00714
1382.71	0.007304
1392.35	0.007406
1401.99	0.007455
1411.64	0.007641
1421.28	0.007866
1430.92	0.007932
1440.57	0.008057
1450.21	0.008377
1459.85	0.00873
1469.49	0.00852
1479.13	0.008586
1488.78	0.008839
1498.42	0.008681
1508.06	0.009015
1517.7	0.009127
1527.35	0.009177
1536.99	0.009436
1546.63	0.009832
1556.27	0.010182
1565.91	0.010182
1575.56	0.010672
1585.2	0.010503
1594.84	0.010574
1604.48	0.010823
1614.13	0.010828
1623.77	0.010995
1633.41	0.011201
1643.05	0.011343
1652.7	0.011904
1662.34	0.011579
1671.98	0.011699
1681.62	0.011836
1691.27	0.011783
1700.91	0.012625
1710.55	0.012449
1720.19	0.012832
1729.84	0.012867
1739.48	0.013271
1749.12	0.013246
1758.76	0.013465
1768.4	0.013618
1778.05	0.01329
1787.69	0.013644
1797.33	0.013887
1806.97	0.013652
1816.62	0.013944
1826.26	0.014287
1835.9	0.014502
1845.54	0.015104
1855.18	0.014886
1864.83	0.014601
1874.47	0.014166
1884.11	0.013956
1893.75	0.01501
1903.4	0.014222
1913.04	0.013722
1922.68	0.015282
1932.32	0.014398
1941.97	0.014864
1951.61	0.015032
1961.25	0.015803
1970.89	0.015448
1980.54	0.019415
1990.18	0.018554
1999.82	0.017317
2009.46	0.019742
2019.11	0.021433
2028.75	0.020972
2038.39	0.022256
2048.03	0.022727
2057.67	0.021616
2067.32	0.020707
2076.96	0.020999
2086.6	0.02013
2096.24	0.019699
2105.89	0.020912
2115.53	0.020511
2125.17	0.02125
2134.81	0.020257
2144.45	0.021834
2154.1	0.023814
2163.74	0.028475
2173.38	0.026573
2183.02	0.026162
2192.67	0.025886
2202.31	0.024429
2211.95	0.024413
2221.59	0.025241
2231.24	0.024621
2240.88	0.024737
2250.52	0.023606
2260.16	0.025005
2269.8	0.023148
2279.45	0.023678
2289.09	0.023003
2298.73	0.023174
2308.38	0.022847
2318.02	0.023698
2327.66	0.022191
2337.3	0.022603
2346.94	0.022528
2356.59	0.02259
2366.23	0.023107
2375.87	0.022471
2385.51	0.022344
2395.16	0.022538
2404.8	0.023437
2414.44	0.023391
2424.08	0.023912
2433.72	0.023289
2443.37	0.024319
2453.01	0.02471
2462.65	0.02406
2472.29	0.024023
2481.94	0.02516
2491.58	0.024327
2501.22	0.025407
2510.86	0.024925
2520.51	0.025649
2530.15	0.024911
2539.79	0.025639
2549.43	0.025712
2559.07	0.026147
2568.72	0.026317
2578.36	0.026936
2588	0.025811
2597.64	0.025695
2607.29	0.02644
2616.93	0.026014
2626.57	0.026243
2636.21	0.025368
2645.86	0.025326
2655.5	0.025926
2665.14	0.025381
2674.78	0.025741
2684.43	0.025702
2694.07	0.025861
2703.71	0.025862
2713.35	0.025971
2722.99	0.026209
2732.64	0.02594
2742.28	0.026197
2751.92	0.026661
2761.56	0.02653
2771.21	0.026658
2780.85	0.027306
2790.49	0.027325
2800.13	0.027642
2809.78	0.027394
2819.42	0.028134
2829.06	0.028418
2838.7	0.02861
2848.34	0.028081
2857.99	0.028193
2867.63	0.028809
2877.27	0.029144
2886.91	0.028723
2896.56	0.028861
2906.2	0.02984
2915.84	0.03004
2925.48	0.030068
2935.13	0.030003
2944.77	0.029515
2954.41	0.030825
2964.05	0.031406
2973.7	0.029952
2983.34	0.029672
2992.98	0.030162
3002.62	0.030354
3012.26	0.030558
3021.91	0.030765
3031.55	0.031194
3041.19	0.031049
3050.83	0.031334
3060.48	0.031607
3070.12	0.031031
3079.76	0.030977
3089.4	0.031597
3099.05	0.032461
3108.69	0.032267
3118.33	0.032445
3127.97	0.033009
3137.61	0.032382
3147.26	0.032293
3156.9	0.033958
3166.54	0.03374
3176.18	0.033451
3185.83	0.033301
3195.47	0.033776
3205.11	0.034343
3214.75	0.034798
3224.4	0.033994
3234.04	0.034216
3243.68	0.033879
3253.32	0.034553
3262.97	0.034858
3272.61	0.033942
3282.25	0.03402
3291.89	0.035527
3301.53	0.035785
3311.18	0.035028
3320.82	0.035089
3330.46	0.035418
3340.1	0.035652
3349.75	0.034977
3359.39	0.034714
3369.03	0.034744
3378.67	0.035404
3388.32	0.035265
3397.96	0.035327
3407.6	0.035079
3417.24	0.035671
3426.89	0.035284
3436.53	0.034645
3446.17	0.03608
3455.81	0.035818
3465.45	0.035919
3475.1	0.035255
3484.74	0.035754
3494.38	0.03584
3504.02	0.03617
3513.67	0.03637
3523.31	0.036942
3532.95	0.034719
3542.59	0.0357
3552.24	0.035769
3561.88	0.034726
3571.52	0.035803
3581.16	0.035975
3590.8	0.034872
3600.45	0.035238
3610.09	0.035728
3619.73	0.036664
3629.37	0.036235
3639.02	0.035691
3648.66	0.034906
3658.3	0.036147
3667.94	0.034925
3677.59	0.035173
3687.23	0.036251
3696.87	0.035707
3706.51	0.037183
3716.16	0.035231
3725.8	0.035414
3735.44	0.036007
3745.08	0.037066
3754.72	0.035289
3764.37	0.035344
3774.01	0.035849
3783.65	0.035922
3793.29	0.035086
3802.94	0.035856
3812.58	0.034685
3822.22	0.036266
3831.86	0.037093
3841.51	0.03509
3851.15	0.036289
3860.79	0.036074
3870.43	0.035883
3880.07	0.037196
3889.72	0.036488
3899.36	0.037136
3909	0.035485
3918.64	0.037465
3928.29	0.036812
3937.93	0.035268
3947.57	0.035444
3957.21	0.037115
3966.86	0.037147
3976.5	0.037111
3986.14	0.037417
3995.78	0.036781
