Measurement: Infrared, Infrared Data RAW
Mineral: Billwiseite
Rruff sample: R130070
Ideal chemistry: Sb^3+^_5_Nb^5+^_3_W^6+^O_18_
Locality: Eastern margin of the Nanga Parbat – Haramosh massif at Stak Nala, 70 km east of Gilgit, Pakistan
Source: Frank C. Hawthorne
Description: Transparent, pale yellow. Associated with B-rich muscovite. Data from Hawthorne et al (2012)
Measured chemistry: Sb^3+^_4.87_(Nb_1.33_Ta_1.28_Ti_0.18_W_1.26_)_Σ=4.05_O_18_
x	intensity
3996.31	0.22476
3986.67	0.22329
3977.03	0.22158
3967.38	0.22035
3957.74	0.21882
3948.1	0.21729
3938.45	0.21575
3928.81	0.21434
3919.17	0.21286
3909.52	0.21145
3899.88	0.2101
3890.23	0.2085
3880.59	0.20721
3870.95	0.20532
3861.3	0.20454
3851.66	0.20345
3842.02	0.20069
3832.37	0.19996
3822.73	0.19824
3813.09	0.19767
3803.44	0.19529
3793.8	0.19495
3784.15	0.19346
3774.51	0.19198
3764.87	0.19051
3755.22	0.18874
3745.58	0.18715
3735.94	0.18507
3726.29	0.18506
3716.65	0.18392
3707.01	0.18315
3697.36	0.18211
3687.72	0.18049
3678.07	0.17816
3668.43	0.17781
3658.79	0.17615
3649.14	0.17375
3639.5	0.17414
3629.86	0.17187
3620.21	0.17112
3610.57	0.16997
3600.93	0.16903
3591.28	0.16745
3581.64	0.16694
3572	0.16569
3562.35	0.16456
3552.71	0.16311
3543.06	0.16221
3533.42	0.16117
3523.78	0.15971
3514.13	0.15901
3504.49	0.15775
3494.85	0.15681
3485.2	0.15579
3475.56	0.15498
3465.92	0.15395
3456.27	0.15284
3446.63	0.15155
3436.98	0.15046
3427.34	0.14936
3417.7	0.14812
3408.05	0.14702
3398.41	0.14548
3388.77	0.14432
3379.12	0.14355
3369.48	0.14203
3359.84	0.14092
3350.19	0.13957
3340.55	0.13847
3330.9	0.13725
3321.26	0.13605
3311.62	0.13489
3301.97	0.13401
3292.33	0.1324
3282.69	0.13133
3273.04	0.13036
3263.4	0.12943
3253.76	0.12841
3244.11	0.12693
3234.47	0.12614
3224.83	0.12513
3215.18	0.12407
3205.54	0.12278
3195.89	0.12158
3186.25	0.12053
3176.61	0.11938
3166.96	0.11823
3157.32	0.1169
3147.68	0.11599
3138.03	0.11482
3128.39	0.11365
3118.75	0.11236
3109.1	0.11156
3099.46	0.11028
3089.81	0.10925
3080.17	0.10808
3070.53	0.10715
3060.88	0.1062
3051.24	0.10533
3041.6	0.10425
3031.95	0.10303
3022.31	0.10221
3012.67	0.10117
3003.02	0.10023
2993.38	0.09925
2983.73	0.0985
2974.09	0.0977
2964.45	0.09706
2954.8	0.09627
2945.16	0.09527
2935.52	0.09501
2925.87	0.09464
2916.23	0.09364
2906.59	0.09168
2896.94	0.09075
2887.3	0.08969
2877.65	0.08883
2868.01	0.08798
2858.37	0.08746
2848.72	0.08662
2839.08	0.08505
2829.44	0.08406
2819.79	0.08309
2810.15	0.08233
2800.51	0.08146
2790.86	0.08062
2781.22	0.07975
2771.58	0.07883
2761.93	0.07818
2752.29	0.07736
2742.64	0.07649
2733	0.07571
2723.36	0.07491
2713.71	0.0741
2704.07	0.07333
2694.43	0.07259
2684.78	0.07189
2675.14	0.07105
2665.5	0.0704
2655.85	0.07001
2646.21	0.06981
2636.56	0.06954
2626.92	0.06918
2617.28	0.06896
2607.63	0.06852
2597.99	0.06818
2588.35	0.06771
2578.7	0.06727
2569.06	0.06673
2559.42	0.06621
2549.77	0.06562
2540.13	0.06471
2530.48	0.06426
2520.84	0.06354
2511.2	0.06277
2501.55	0.06227
2491.91	0.06159
2482.27	0.06081
2472.62	0.06008
2462.98	0.05953
2453.34	0.0589
2443.69	0.05823
2434.05	0.0575
2424.4	0.05673
2414.76	0.05583
2405.12	0.05484
2395.47	0.054
2385.83	0.05297
2376.19	0.05102
2366.54	0.04472
2356.9	0.04174
2347.26	0.04723
2337.61	0.04422
2327.97	0.04493
2318.33	0.04695
2308.68	0.0476
2299.04	0.04803
2289.39	0.04833
2279.75	0.04865
2270.11	0.04837
2260.46	0.04815
2250.82	0.04799
2241.18	0.04753
2231.53	0.04713
2221.89	0.04692
2212.25	0.0463
2202.6	0.04598
2192.96	0.0455
2183.31	0.0455
2173.67	0.04484
2164.03	0.04533
2154.38	0.04267
2144.74	0.04098
2135.1	0.03926
2125.45	0.03753
2115.81	0.03675
2106.17	0.03619
2096.52	0.03563
2086.88	0.03469
2077.23	0.03427
2067.59	0.03376
2057.95	0.03381
2048.3	0.03383
2038.66	0.03349
2029.02	0.03275
2019.37	0.03144
2009.73	0.03074
2000.09	0.02945
1990.44	0.02819
1980.8	0.02857
1971.15	0.02722
1961.51	0.02576
1951.87	0.02389
1942.22	0.02191
1932.58	0.02087
1922.94	0.01891
1913.29	0.0182
1903.65	0.01705
1894.01	0.01539
1884.36	0.0145
1874.72	0.01349
1865.08	0.01162
1855.43	0.01097
1845.79	0.00863
1836.14	0.00828
1826.5	0.00641
1816.86	0.00584
1807.21	0.00424
1797.57	0.00267
1787.93	0.00195
1778.28	0.00063
1768.64	-0.00129
1759	-0.00193
1749.35	-0.00479
1739.71	-0.00471
1730.06	-0.00549
1720.42	-0.00615
1710.78	-0.00691
1701.13	-0.01076
1691.49	-0.00891
1681.85	-0.01225
1672.2	-0.01236
1662.56	-0.01196
1652.92	-0.01685
1643.27	-0.01382
1633.63	-0.01534
1623.98	-0.01662
1614.34	-0.01727
1604.7	-0.01769
1595.05	-0.0189
1585.41	-0.01968
1575.77	-0.02278
1566.12	-0.02311
1556.48	-0.02779
1546.84	-0.02568
1537.19	-0.02852
1527.55	-0.02837
1517.91	-0.03102
1508.26	-0.03446
1498.62	-0.03149
1488.97	-0.03268
1479.33	-0.03131
1469.69	-0.0327
1460.04	-0.03367
1450.4	-0.03376
1440.76	-0.03422
1431.11	-0.0355
1421.47	-0.03672
1411.83	-0.03701
1402.18	-0.03817
1392.54	-0.03916
1382.89	-0.03929
1373.25	-0.04091
1363.61	-0.04145
1353.96	-0.04164
1344.32	-0.04229
1334.68	-0.0431
1325.03	-0.0434
1315.39	-0.04414
1305.75	-0.04437
1296.1	-0.04485
1286.46	-0.04539
1276.81	-0.04576
1267.17	-0.04634
1257.53	-0.0467
1247.88	-0.04689
1238.24	-0.04732
1228.6	-0.04771
1218.95	-0.04791
1209.31	-0.04806
1199.67	-0.04808
1190.02	-0.04792
1180.38	-0.04778
1170.73	-0.04755
1161.09	-0.04733
1151.45	-0.04698
1141.8	-0.04651
1132.16	-0.04602
1122.52	-0.04525
1112.87	-0.04439
1103.23	-0.04341
1093.59	-0.04232
1083.94	-0.0413
1074.3	-0.04002
1064.66	-0.03867
1055.01	-0.03711
1045.37	-0.03552
1035.72	-0.03394
1026.08	-0.03214
1016.44	-0.0304
1006.79	-0.02833
997.15	-0.02602
987.506	-0.0237
977.863	-0.02069
968.219	-0.01665
958.575	-0.0113
948.932	-0.00553
939.288	-0.00065
929.645	0.0034
920.001	0.00783
910.357	0.01374
900.714	0.02077
891.07	0.02937
881.426	0.04106
871.783	0.0568
862.139	0.07698
852.496	0.10002
842.852	0.11713
833.208	0.12408
823.565	0.1387
813.921	0.17023
804.278	0.2093
794.634	0.2491
784.99	0.28932
775.347	0.33006
765.703	0.36425
756.059	0.38596
746.416	0.39845
736.772	0.4083
727.129	0.42002
717.485	0.43379
707.841	0.44423
698.198	0.4458
688.554	0.42679
678.911	0.39528
669.267	0.38662
659.623	0.39436
649.98	0.42537
640.336	0.45928
630.692	0.47575
621.049	0.45927
611.405	0.42701
601.762	0.40721
592.118	0.41482
582.474	0.43361
572.831	0.4511
563.187	0.46437
553.544	0.47438
543.9	0.4872
534.256	0.50116
524.613	0.48554
514.969	0.41259
505.325	0.33807
495.682	0.28274
486.038	0.2546
476.395	0.23865
466.751	0.22378
457.107	0.22939
447.464	0.25423
437.82	0.30328
428.177	0.4208
