Measurement: Infrared, Infrared Data RAW
Mineral: Legrandite
Rruff sample: R040151
Ideal chemistry: Zn^2+^_2_As^5+^O_4_(OH)H_2_O
Locality: Mapimi, Durango, Mexico
Source: University of Arizona Mineral Museum
Description: Yellow crystal fragments; same material used in McLean et al. (1971) study
Measured chemistry: Zn_1.88_Fe^2+^_0.04_As_1.03_O_4_(OH)Â·H_2_O
x	intensity
399.193	0.082014
408.835	0.085559
418.477	0.087601
428.12	0.121596
437.762	0.148297
447.404	0.159645
457.047	0.155339
466.689	0.125952
476.331	0.125591
485.974	0.141632
495.616	0.130349
505.258	0.141229
514.901	0.138847
524.543	0.106979
534.185	0.080762
543.828	0.057862
553.47	0.051292
563.112	0.051742
572.755	0.052809
582.397	0.055238
592.039	0.058076
601.682	0.061083
611.324	0.06427
620.966	0.066514
630.609	0.069292
640.251	0.075224
649.893	0.083471
659.536	0.080722
669.178	0.062873
678.82	0.058613
688.463	0.060767
698.105	0.065522
707.747	0.072478
717.39	0.083045
727.032	0.100682
736.674	0.125578
746.317	0.155198
755.959	0.180531
765.601	0.211638
775.244	0.255218
784.886	0.28503
794.528	0.263051
804.171	0.253669
813.813	0.261575
823.455	0.237201
833.098	0.190067
842.74	0.154023
852.382	0.129711
862.025	0.111265
871.667	0.095153
881.309	0.089079
890.952	0.061739
900.594	0.04796
910.236	0.04934
919.879	0.040691
929.521	0.038863
939.163	0.031312
948.806	0.023615
958.448	0.019112
968.09	0.017167
977.733	0.016099
987.375	0.016119
997.017	0.017383
1006.66	0.020734
1016.3	0.026998
1025.94	0.038675
1035.59	0.03858
1045.23	0.024158
1054.87	0.015091
1064.51	0.012057
1074.16	0.011189
1083.8	0.011469
1093.44	0.010781
1103.08	0.009739
1112.72	0.008811
1122.37	0.009065
1132.01	0.009202
1141.65	0.008425
1151.3	0.008085
1160.94	0.007956
1170.58	0.007804
1180.22	0.007853
1189.86	0.00774
1199.51	0.007775
1209.15	0.008174
1218.79	0.008245
1228.43	0.00843
1238.08	0.008798
1247.72	0.009095
1257.36	0.009316
1267	0.009651
1276.64	0.010072
1286.29	0.010497
1295.93	0.01057
1305.57	0.010812
1315.21	0.011188
1324.86	0.011499
1334.5	0.011479
1344.14	0.012021
1353.78	0.012278
1363.43	0.012709
1373.07	0.012833
1382.71	0.013436
1392.35	0.013899
1401.99	0.01411
1411.64	0.014749
1421.28	0.015392
1430.92	0.015835
1440.57	0.01647
1450.21	0.01698
1459.85	0.017486
1469.49	0.017399
1479.13	0.017462
1488.78	0.017659
1498.42	0.017936
1508.06	0.018532
1517.7	0.018084
1527.35	0.018209
1536.99	0.018873
1546.63	0.019329
1556.27	0.020059
1565.91	0.020454
1575.56	0.021758
1585.2	0.022261
1594.84	0.023313
1604.48	0.023545
1614.13	0.023055
1623.77	0.022375
1633.41	0.021564
1643.05	0.020594
1652.7	0.021228
1662.34	0.019838
1671.98	0.019567
1681.62	0.019457
1691.27	0.019071
1700.91	0.019363
1710.55	0.018195
1720.19	0.017644
1729.84	0.017121
1739.48	0.017185
1749.12	0.016857
1758.76	0.016405
1768.4	0.016421
1778.05	0.016851
1787.69	0.016417
1797.33	0.016663
1806.97	0.01665
1816.62	0.016548
1826.26	0.017124
1835.9	0.017491
1845.54	0.017638
1855.18	0.017524
1864.83	0.018153
1874.47	0.017917
1884.11	0.018297
1893.75	0.018894
1903.4	0.018564
1913.04	0.018398
1922.68	0.018576
1932.32	0.019848
1941.97	0.017577
1951.61	0.01879
1961.25	0.019523
1970.89	0.018102
1980.54	0.020104
1990.18	0.021597
1999.82	0.020128
2009.46	0.020188
2019.11	0.020826
2028.75	0.01934
2038.39	0.020933
2048.03	0.020697
2057.67	0.021756
2067.32	0.021017
2076.96	0.02115
2086.6	0.021748
2096.24	0.021911
2105.89	0.022208
2115.53	0.023235
2125.17	0.023263
2134.81	0.021201
2144.45	0.021524
2154.1	0.020943
2163.74	0.026031
2173.38	0.024498
2183.02	0.024315
2192.67	0.026162
2202.31	0.026225
2211.95	0.026687
2221.59	0.02641
2231.24	0.028951
2240.88	0.026841
2250.52	0.02585
2260.16	0.027741
2269.8	0.029062
2279.45	0.029087
2289.09	0.02869
2298.73	0.030139
2308.38	0.030856
2318.02	0.03172
2327.66	0.032371
2337.3	0.032751
2346.94	0.032505
2356.59	0.033796
2366.23	0.033977
2375.87	0.033317
2385.51	0.033269
2395.16	0.03315
2404.8	0.033171
2414.44	0.034098
2424.08	0.03467
2433.72	0.033758
2443.37	0.035103
2453.01	0.034881
2462.65	0.034141
2472.29	0.0346
2481.94	0.034705
2491.58	0.034861
2501.22	0.034533
2510.86	0.035597
2520.51	0.035479
2530.15	0.035364
2539.79	0.036632
2549.43	0.037072
2559.07	0.036601
2568.72	0.037528
2578.36	0.037437
2588	0.038578
2597.64	0.038212
2607.29	0.038658
2616.93	0.038868
2626.57	0.039757
2636.21	0.039843
2645.86	0.039878
2655.5	0.040546
2665.14	0.040867
2674.78	0.041439
2684.43	0.041725
2694.07	0.042425
2703.71	0.043943
2713.35	0.045301
2722.99	0.045661
2732.64	0.04713
2742.28	0.048819
2751.92	0.050114
2761.56	0.05112
2771.21	0.053317
2780.85	0.053805
2790.49	0.054898
2800.13	0.056241
2809.78	0.05705
2819.42	0.058207
2829.06	0.058904
2838.7	0.059689
2848.34	0.060681
2857.99	0.061243
2867.63	0.061278
2877.27	0.061106
2886.91	0.061884
2896.56	0.061624
2906.2	0.061066
2915.84	0.061555
2925.48	0.061452
2935.13	0.06218
2944.77	0.06098
2954.41	0.061838
2964.05	0.061089
2973.7	0.061401
2983.34	0.061942
2992.98	0.06277
3002.62	0.062431
3012.26	0.063276
3021.91	0.063542
3031.55	0.065299
3041.19	0.066281
3050.83	0.067639
3060.48	0.068865
3070.12	0.070107
3079.76	0.071647
3089.4	0.07359
3099.05	0.074254
3108.69	0.075405
3118.33	0.075469
3127.97	0.07485
3137.61	0.0749
3147.26	0.074033
3156.9	0.072522
3166.54	0.071391
3176.18	0.071362
3185.83	0.070181
3195.47	0.070665
3205.11	0.071095
3214.75	0.07054
3224.4	0.069192
3234.04	0.071073
3243.68	0.07203
3253.32	0.072944
3262.97	0.074318
3272.61	0.076423
3282.25	0.080677
3291.89	0.086308
3301.53	0.088904
3311.18	0.084082
3320.82	0.077375
3330.46	0.071642
3340.1	0.068874
3349.75	0.064631
3359.39	0.063731
3369.03	0.061713
3378.67	0.061234
3388.32	0.058434
3397.96	0.057835
3407.6	0.055715
3417.24	0.0538
3426.89	0.051706
3436.53	0.050417
3446.17	0.049183
3455.81	0.046273
3465.45	0.044072
3475.1	0.043186
3484.74	0.041514
3494.38	0.040619
3504.02	0.03821
3513.67	0.037497
3523.31	0.036076
3532.95	0.035029
3542.59	0.035002
3552.24	0.034763
3561.88	0.037644
3571.52	0.06193
3581.16	0.032025
3590.8	0.029341
3600.45	0.030655
3610.09	0.029875
3619.73	0.029917
3629.37	0.030356
3639.02	0.03155
3648.66	0.029489
3658.3	0.031161
3667.94	0.029444
3677.59	0.032194
3687.23	0.030375
3696.87	0.03202
3706.51	0.030792
3716.16	0.030473
3725.8	0.032972
3735.44	0.032752
3745.08	0.031204
3754.72	0.033431
3764.37	0.033159
3774.01	0.033611
3783.65	0.034019
3793.29	0.031986
3802.94	0.034629
3812.58	0.033495
3822.22	0.036704
3831.86	0.033706
3841.51	0.03606
3851.15	0.037522
3860.79	0.035027
3870.43	0.036179
3880.07	0.037907
3889.72	0.034004
3899.36	0.037212
3909	0.038408
3918.64	0.037341
3928.29	0.036926
3937.93	0.037849
3947.57	0.037521
3957.21	0.037334
3966.86	0.037442
3976.5	0.036888
3986.14	0.037878
3995.78	0.03712
