Measurement: Infrared, Infrared Data RAW
Mineral: Ludlamite
Rruff sample: R040152
Ideal chemistry: Fe^2+^_3_(PO_4_)_2_4H_2_O
Locality: Cobalt, Lemhi County, Idaho, USA
Source: University of Arizona Mineral Museum
Description: Green tabular single crystals
Measured chemistry: Fe_3.01_(P_1.00_O_4_)_2_Â·4H_2_O
x	intensity
399.193	0.049865
408.835	0.055924
418.477	0.068057
428.12	0.076336
437.762	0.091101
447.404	0.116679
457.047	0.148946
466.689	0.13574
476.331	0.153667
485.974	0.188243
495.616	0.161211
505.258	0.146953
514.901	0.177235
524.543	0.226377
534.185	0.274525
543.828	0.284986
553.47	0.292524
563.112	0.248253
572.755	0.235792
582.397	0.172796
592.039	0.148252
601.682	0.121455
611.324	0.076863
620.966	0.074765
630.609	0.092064
640.251	0.085373
649.893	0.093191
659.536	0.093859
669.178	0.074692
678.82	0.071762
688.463	0.079258
698.105	0.081858
707.747	0.0783
717.39	0.071978
727.032	0.066499
736.674	0.066146
746.317	0.071924
755.959	0.082574
765.601	0.080729
775.244	0.066359
784.886	0.070247
794.528	0.085746
804.171	0.069184
813.813	0.061078
823.455	0.0647
833.098	0.072612
842.74	0.084048
852.382	0.099213
862.025	0.119951
871.667	0.146123
881.309	0.180987
890.952	0.226894
900.594	0.284103
910.236	0.324204
919.879	0.298811
929.521	0.340542
939.163	0.325959
948.806	0.243162
958.448	0.249486
968.09	0.319396
977.733	0.435051
987.375	0.440255
997.017	0.309439
1006.66	0.24668
1016.3	0.285958
1025.94	0.342171
1035.59	0.287802
1045.23	0.238702
1054.87	0.181128
1064.51	0.125703
1074.16	0.082906
1083.8	0.05784
1093.44	0.069633
1103.08	0.037739
1112.72	0.026347
1122.37	0.022078
1132.01	0.019759
1141.65	0.01787
1151.3	0.016411
1160.94	0.014922
1170.58	0.013792
1180.22	0.012978
1189.86	0.012334
1199.51	0.011771
1209.15	0.011385
1218.79	0.011206
1228.43	0.011085
1238.08	0.010926
1247.72	0.011181
1257.36	0.011302
1267	0.011407
1276.64	0.011856
1286.29	0.011975
1295.93	0.012069
1305.57	0.01238
1315.21	0.012634
1324.86	0.012784
1334.5	0.01291
1344.14	0.013265
1353.78	0.013638
1363.43	0.01399
1373.07	0.014538
1382.71	0.014738
1392.35	0.015524
1401.99	0.015864
1411.64	0.017033
1421.28	0.018052
1430.92	0.019174
1440.57	0.019701
1450.21	0.020518
1459.85	0.021257
1469.49	0.022244
1479.13	0.023384
1488.78	0.024928
1498.42	0.027065
1508.06	0.029049
1517.7	0.031937
1527.35	0.033996
1536.99	0.036162
1546.63	0.039182
1556.27	0.044284
1565.91	0.052602
1575.56	0.068207
1585.2	0.092608
1594.84	0.086661
1604.48	0.052421
1614.13	0.037585
1623.77	0.032587
1633.41	0.030594
1643.05	0.029318
1652.7	0.02903
1662.34	0.029259
1671.98	0.029632
1681.62	0.029898
1691.27	0.030336
1700.91	0.031089
1710.55	0.032235
1720.19	0.032929
1729.84	0.033352
1739.48	0.033717
1749.12	0.033864
1758.76	0.034333
1768.4	0.034635
1778.05	0.035851
1787.69	0.03783
1797.33	0.04176
1806.97	0.047284
1816.62	0.05021
1826.26	0.047084
1835.9	0.043908
1845.54	0.043373
1855.18	0.04446
1864.83	0.046048
1874.47	0.046441
1884.11	0.045494
1893.75	0.043922
1903.4	0.042974
1913.04	0.040515
1922.68	0.040573
1932.32	0.039593
1941.97	0.037821
1951.61	0.036787
1961.25	0.035302
1970.89	0.034554
1980.54	0.036736
1990.18	0.036185
1999.82	0.036577
2009.46	0.034792
2019.11	0.035776
2028.75	0.034752
2038.39	0.037031
2048.03	0.037464
2057.67	0.038802
2067.32	0.040989
2076.96	0.042618
2086.6	0.043017
2096.24	0.043972
2105.89	0.045713
2115.53	0.047501
2125.17	0.047106
2134.81	0.046459
2144.45	0.047823
2154.1	0.046773
2163.74	0.053348
2173.38	0.052881
2183.02	0.056074
2192.67	0.057466
2202.31	0.058405
2211.95	0.059189
2221.59	0.060155
2231.24	0.060164
2240.88	0.05933
2250.52	0.060174
2260.16	0.059875
2269.8	0.060939
2279.45	0.062155
2289.09	0.062917
2298.73	0.061917
2308.38	0.063165
2318.02	0.06334
2327.66	0.061937
2337.3	0.061501
2346.94	0.061793
2356.59	0.060808
2366.23	0.060014
2375.87	0.061117
2385.51	0.061143
2395.16	0.060644
2404.8	0.060907
2414.44	0.061091
2424.08	0.061376
2433.72	0.060736
2443.37	0.061711
2453.01	0.062835
2462.65	0.063326
2472.29	0.063706
2481.94	0.064777
2491.58	0.065488
2501.22	0.066843
2510.86	0.068345
2520.51	0.070758
2530.15	0.072531
2539.79	0.074384
2549.43	0.075242
2559.07	0.077032
2568.72	0.07946
2578.36	0.081783
2588	0.083164
2597.64	0.084312
2607.29	0.086015
2616.93	0.086877
2626.57	0.088024
2636.21	0.089028
2645.86	0.09019
2655.5	0.09047
2665.14	0.090894
2674.78	0.090817
2684.43	0.091058
2694.07	0.091414
2703.71	0.092934
2713.35	0.093673
2722.99	0.095315
2732.64	0.097094
2742.28	0.098138
2751.92	0.100269
2761.56	0.100982
2771.21	0.102876
2780.85	0.104329
2790.49	0.106585
2800.13	0.108772
2809.78	0.111235
2819.42	0.113512
2829.06	0.116092
2838.7	0.117067
2848.34	0.116374
2857.99	0.115349
2867.63	0.113203
2877.27	0.111255
2886.91	0.108348
2896.56	0.10637
2906.2	0.10435
2915.84	0.102666
2925.48	0.101057
2935.13	0.100227
2944.77	0.098175
2954.41	0.09627
2964.05	0.09452
2973.7	0.092604
2983.34	0.091248
2992.98	0.08935
3002.62	0.087855
3012.26	0.086853
3021.91	0.086193
3031.55	0.085141
3041.19	0.084797
3050.83	0.084674
3060.48	0.085846
3070.12	0.086654
3079.76	0.088127
3089.4	0.090115
3099.05	0.093067
3108.69	0.096002
3118.33	0.0992
3127.97	0.100188
3137.61	0.100064
3147.26	0.098341
3156.9	0.096894
3166.54	0.094325
3176.18	0.09234
3185.83	0.090771
3195.47	0.089082
3205.11	0.087604
3214.75	0.085061
3224.4	0.084611
3234.04	0.08253
3243.68	0.08083
3253.32	0.077624
3262.97	0.075933
3272.61	0.073329
3282.25	0.070745
3291.89	0.069706
3301.53	0.06716
3311.18	0.064876
3320.82	0.063815
3330.46	0.061194
3340.1	0.058592
3349.75	0.055843
3359.39	0.054121
3369.03	0.051204
3378.67	0.049343
3388.32	0.047653
3397.96	0.045666
3407.6	0.04381
3417.24	0.041145
3426.89	0.040265
3436.53	0.038051
3446.17	0.036849
3455.81	0.036872
3465.45	0.033805
3475.1	0.033978
3484.74	0.033182
3494.38	0.030622
3504.02	0.02949
3513.67	0.029351
3523.31	0.030049
3532.95	0.02974
3542.59	0.029225
3552.24	0.027068
3561.88	0.026148
3571.52	0.026611
3581.16	0.024429
3590.8	0.023788
3600.45	0.023752
3610.09	0.025028
3619.73	0.025266
3629.37	0.022869
3639.02	0.022212
3648.66	0.022012
3658.3	0.022991
3667.94	0.024099
3677.59	0.023432
3687.23	0.022848
3696.87	0.024212
3706.51	0.024135
3716.16	0.023801
3725.8	0.023499
3735.44	0.022912
3745.08	0.024806
3754.72	0.025406
3764.37	0.025209
3774.01	0.025024
3783.65	0.024754
3793.29	0.025019
3802.94	0.026489
3812.58	0.025751
3822.22	0.025754
3831.86	0.025091
3841.51	0.02521
3851.15	0.024824
3860.79	0.025816
3870.43	0.026714
3880.07	0.025292
3889.72	0.02588
3899.36	0.026128
3909	0.025477
3918.64	0.026556
3928.29	0.025711
3937.93	0.026319
3947.57	0.025297
3957.21	0.027019
3966.86	0.027317
3976.5	0.027647
3986.14	0.027322
3995.78	0.025256
