Measurement: Infrared, Infrared Data RAW
Mineral: Meurigite-Na
Rruff sample: R130084
Ideal chemistry: [Na(H_2_O)_2.5_][Fe^3+^_8_(PO_4_)_6_(OH)_7_]4H_2_O
Locality: Silver Coin mine, Valmy, Iron Point district, Humboldt County, Nevada, USA
Source: Anthony R. Kampf
Description: Radial sprays of cream-colored, flattened fibers.  Data from Kampf et al (2009)
Measured chemistry: [Na_0.86_K_0.09_Ca_0.05_(H_2_O)_1.90_(H_3_O)_0.60_][Fe^3+^_6.63_Al_1.32_Cu_0.04_Mg_0.01_(P_0.96_V_0.02_O_4_)_6_(OH)_7_(H_2_O)_4_]
x	intensity
649.904	94.2925
659.547	96.8506
669.189	98.0207
678.832	98.7949
688.474	99.0591
698.116	99.2554
707.759	99.8709
717.401	100.016
727.044	99.9039
736.686	99.5149
746.329	98.5773
755.971	97.1705
765.614	94.9353
775.256	92.296
784.899	91.3599
794.541	91.4582
804.184	90.3968
813.826	88.3658
823.469	86.7951
833.111	87.27
842.754	88.0997
852.396	88.8645
862.039	88.4918
871.681	87.6157
881.324	87.029
890.966	86.8379
900.609	84.3468
910.251	76.3747
919.894	64.7392
929.536	60.2869
939.179	62.0893
948.821	63.0313
958.464	52.1478
968.106	35.5451
977.749	28.5758
987.391	35.1723
997.034	40.5696
1006.68	33.1921
1016.32	25.8549
1025.96	24.2177
1035.6	27.4195
1045.25	32.0547
1054.89	34.2236
1064.53	34.5101
1074.17	34.9394
1083.82	38.0284
1093.46	42.697
1103.1	46.9405
1112.74	51.0471
1122.39	54.5254
1132.03	58.8272
1141.67	65.8555
1151.31	71.7667
1160.96	76.1014
1170.6	79.4572
1180.24	81.4553
1189.88	83.6364
1199.53	86.8059
1209.17	90.2599
1218.81	92.7066
1228.45	94.3963
1238.1	95.5577
1247.74	96.4045
1257.38	97.171
1267.02	97.923
1276.67	98.3329
1286.31	98.755
1295.95	99.1433
1305.59	99.4459
1315.24	99.7343
1324.88	99.7869
1334.52	99.894
1344.16	99.992
1353.81	100.082
1363.45	100.151
1373.09	100.17
1382.73	100.219
1392.38	100.292
1402.02	99.967
1411.66	100.113
1421.3	100.041
1430.95	99.9398
1440.59	99.9773
1450.23	99.9612
1459.87	99.9003
1469.52	99.9405
1479.16	99.834
1488.8	99.7474
1498.44	99.8545
1508.09	99.7152
1517.73	99.4072
1527.37	99.4743
1537.01	99.1252
1546.66	98.8812
1556.3	98.4405
1565.94	98.0458
1575.58	97.7433
1585.23	96.8843
1594.87	95.8787
1604.51	94.6806
1614.15	93.6812
1623.8	93.4115
1633.44	93.0633
1643.08	93.2034
1652.72	93.6008
1662.37	94.3541
1672.01	95.4032
1681.65	96.1052
1691.29	97.2726
1700.94	98.4357
1710.58	98.9526
1720.22	99.6403
1729.86	99.6903
1739.51	99.7798
1749.15	99.7693
1758.79	99.9706
1768.43	99.9983
1778.08	100.175
1787.72	100.165
1797.36	100.071
1807	99.9554
1816.65	99.9949
1826.29	99.9122
1835.93	100.027
1845.57	99.9284
1855.21	99.921
1864.86	99.9646
1874.5	99.9731
1884.14	99.8014
1893.79	99.9144
1903.43	99.9242
1913.07	99.7574
1922.71	99.8022
1932.36	100.033
1942	99.9745
1951.64	100.135
1961.28	100.194
1970.92	99.9862
1980.57	100.366
1990.21	100.188
1999.85	99.9557
2009.49	100.303
2019.14	100.249
2028.78	99.9458
2038.42	99.7981
2048.07	100.274
2057.71	100.262
2067.35	100.472
2076.99	100.156
2086.64	99.8843
2096.28	99.711
2105.92	99.7856
2115.56	99.6654
2125.2	99.4413
2134.85	99.3162
2144.49	99.2823
2154.13	99.8987
2163.78	99.7146
2173.42	100.036
2183.06	100.059
2192.7	100.183
2202.34	100.041
2211.99	100.031
2221.63	100.011
2231.27	99.9831
2240.91	99.9099
2250.56	99.9945
2260.2	100.016
2269.84	100
2279.49	100.058
2289.13	99.8938
2298.77	99.9076
2308.41	100.081
2318.05	100.012
2327.7	99.9103
2337.34	99.9959
2346.98	99.7376
2356.62	99.9702
2366.27	99.8299
2375.91	99.5935
2385.55	99.5619
2395.2	99.3738
2404.84	99.4368
2414.48	99.4927
2424.12	99.3825
2433.76	99.3719
2443.41	99.4293
2453.05	99.2709
2462.69	99.536
2472.34	99.5618
2481.98	99.5451
2491.62	99.4252
2501.26	99.5199
2510.91	99.6352
2520.55	99.8112
2530.19	99.5207
2539.83	99.7131
2549.47	99.8277
2559.12	99.8554
2568.76	100.025
2578.4	100.032
2588.05	100.02
2597.69	100.141
2607.33	100.135
2616.97	99.9772
2626.61	100.116
2636.26	100.121
2645.9	100.181
2655.54	100.129
2665.18	100.105
2674.83	100.269
2684.47	100.083
2694.11	100.229
2703.76	100.348
2713.4	100.366
2723.04	100.224
2732.68	100.168
2742.32	100.189
2751.97	100.281
2761.61	100.228
2771.25	100.132
2780.89	100.053
2790.54	99.9797
2800.18	99.7608
2809.82	99.4197
2819.47	99.0113
2829.11	98.5584
2838.75	98.1812
2848.39	97.6901
2858.03	97.2268
2867.68	96.9019
2877.32	96.3982
2886.96	95.8483
2896.6	95.3272
2906.25	94.7471
2915.89	94.0085
2925.53	93.3301
2935.18	92.7823
2944.82	91.9385
2954.46	91.2815
2964.1	90.493
2973.74	89.757
2983.39	88.9103
2993.03	88.0293
3002.67	87.0558
3012.31	86.0273
3021.96	85.1152
3031.6	84.1135
3041.24	82.9216
3050.89	81.6516
3060.53	80.486
3070.17	79.016
3079.81	77.6593
3089.45	76.2537
3099.1	75.0219
3108.74	73.7196
3118.38	72.3675
3128.02	71.5446
3137.67	70.4972
3147.31	69.8942
3156.95	69.4161
3166.59	68.5384
3176.24	67.9339
3185.88	67.0508
3195.52	66.3179
3205.16	65.281
3214.81	64.4724
3224.45	63.8422
3234.09	63.2698
3243.73	63.1435
3253.38	63.0197
3263.02	63.4383
3272.66	64.0815
3282.3	64.6438
3291.95	65.3515
3301.59	66.1284
3311.23	66.694
3320.87	67.2374
3330.52	67.7357
3340.16	68.0046
3349.8	67.9211
3359.44	67.8844
3369.09	67.4539
3378.73	66.9447
3388.37	66.8948
3398.01	66.923
3407.66	67.3201
3417.3	68.2035
3426.94	69.4206
3436.58	70.7883
3446.23	72.2173
3455.87	73.7805
3465.51	75.2996
3475.15	76.4785
3484.8	77.834
3494.44	79.1431
3504.08	80.3787
3513.72	81.351
3523.37	82.5427
3533.01	83.6155
3542.65	84.7568
3552.29	85.9296
3561.94	86.1357
3571.58	84.3798
3581.22	82.5336
3590.86	86.57
3600.51	89.1678
3610.15	89.4773
3619.79	92.9679
3629.43	94.7472
3639.08	96.6329
3648.72	97.5978
3658.36	98.9008
3668	99.0101
3677.65	99.4982
3687.29	99.4988
3696.93	99.6402
3706.57	99.9798
3716.22	100.196
3725.86	100.209
3735.5	100.275
3745.14	100.702
3754.79	100.232
3764.43	100.055
3774.07	100.405
3783.71	100.223
3793.36	99.7449
3803	100.371
3812.64	100.228
3822.28	100.44
3831.93	100.359
3841.57	100.132
3851.21	100.128
3860.85	100.337
3870.5	100.563
3880.14	100.536
3889.78	100.289
3899.42	100.41
3909.07	100.21
3918.71	100.381
3928.35	100.304
3937.99	100.209
3947.64	100.13
3957.28	100.25
3966.92	100.068
3976.56	100.027
3986.21	99.9719
