Measurement: Infrared, Infrared Data RAW
Mineral: Muscovite
Rruff sample: R040124
Ideal chemistry: KAl_2_(Si_3_Al)O_10_(OH)_2_
Locality: Garnet Hill, Pennsylvania, USA
Source: Bob Downs
Description: Grayish green mica book
Measured chemistry: (K_0.90_Na_0.07_)(Al_0.86_Fe_0.10_Mg_0.04_)_2_(Si_0.76_Al_0.24_)_4_O_10_((OH)_0.99_F_0.01_)_2_
x	intensity
399.193	0.399005
408.835	0.415464
418.477	0.417105
428.12	0.424684
437.762	0.410979
447.404	0.378282
457.047	0.321333
466.689	0.268601
476.331	0.220816
485.974	0.21913
495.616	0.21024
505.258	0.206424
514.901	0.252748
524.543	0.308592
534.185	0.343738
543.828	0.368174
553.47	0.386021
563.112	0.394771
572.755	0.398421
582.397	0.395818
592.039	0.383077
601.682	0.364356
611.324	0.340321
620.966	0.310982
630.609	0.31245
640.251	0.321924
649.893	0.299454
659.536	0.278678
669.178	0.259741
678.82	0.244183
688.463	0.229435
698.105	0.216951
707.747	0.204967
717.39	0.19385
727.032	0.183274
736.674	0.175239
746.317	0.167154
755.959	0.157022
765.601	0.147892
775.244	0.140083
784.886	0.134204
794.528	0.129279
804.171	0.123226
813.813	0.116814
823.455	0.110102
833.098	0.101975
842.74	0.093428
852.382	0.084987
862.025	0.077766
871.667	0.070583
881.309	0.065196
890.952	0.06112
900.594	0.060948
910.236	0.061052
919.879	0.059889
929.521	0.058724
939.163	0.058087
948.806	0.060003
958.448	0.067039
968.09	0.080877
977.733	0.099415
987.375	0.112015
997.017	0.117005
1006.66	0.118558
1016.3	0.11926
1025.94	0.118018
1035.59	0.106385
1045.23	0.084305
1054.87	0.074746
1064.51	0.074457
1074.16	0.068448
1083.8	0.058558
1093.44	0.049811
1103.08	0.04372
1112.72	0.039091
1122.37	0.034597
1132.01	0.030467
1141.65	0.026745
1151.3	0.024744
1160.94	0.022893
1170.58	0.021332
1180.22	0.019306
1189.86	0.017916
1199.51	0.016518
1209.15	0.014849
1218.79	0.01319
1228.43	0.011767
1238.08	0.010319
1247.72	0.009331
1257.36	0.008631
1267	0.008122
1276.64	0.007709
1286.29	0.007654
1295.93	0.007515
1305.57	0.007532
1315.21	0.006921
1324.86	0.006874
1334.5	0.007121
1344.14	0.00683
1353.78	0.007245
1363.43	0.00742
1373.07	0.009571
1382.71	0.008331
1392.35	0.007376
1401.99	0.007678
1411.64	0.008255
1421.28	0.007772
1430.92	0.007993
1440.57	0.008453
1450.21	0.009648
1459.85	0.009635
1469.49	0.007932
1479.13	0.006506
1488.78	0.005722
1498.42	0.005834
1508.06	0.005141
1517.7	0.005956
1527.35	0.006779
1536.99	0.006992
1546.63	0.007506
1556.27	0.00648
1565.91	0.007554
1575.56	0.006345
1585.2	0.007131
1594.84	0.00714
1604.48	0.007474
1614.13	0.007601
1623.77	0.007622
1633.41	0.007895
1643.05	0.008343
1652.7	0.005296
1662.34	0.007844
1671.98	0.007168
1681.62	0.00646
1691.27	0.006524
1700.91	0.004451
1710.55	0.006213
1720.19	0.005551
1729.84	0.006026
1739.48	0.005492
1749.12	0.005365
1758.76	0.005077
1768.4	0.005003
1778.05	0.005177
1787.69	0.004951
1797.33	0.004469
1806.97	0.004434
1816.62	0.005134
1826.26	0.0047
1835.9	0.005291
1845.54	0.004946
1855.18	0.004784
1864.83	0.005811
1874.47	0.004734
1884.11	0.00525
1893.75	0.00545
1903.4	0.005137
1913.04	0.005388
1922.68	0.005967
1932.32	0.003873
1941.97	0.005046
1951.61	0.004383
1961.25	0.003122
1970.89	0.001623
1980.54	0.003776
1990.18	0.003534
1999.82	0.002529
2009.46	0.003334
2019.11	0.004436
2028.75	0.005034
2038.39	0.005701
2048.03	0.005809
2057.67	0.004243
2067.32	0.005866
2076.96	0.005884
2086.6	0.00496
2096.24	0.00561
2105.89	0.006597
2115.53	0.005161
2125.17	0.005128
2134.81	0.002944
2144.45	0.000795
2154.1	0.001716
2163.74	0.004855
2173.38	0.003945
2183.02	0.004714
2192.67	0.00563
2202.31	0.006901
2211.95	0.00545
2221.59	0.005988
2231.24	0.005547
2240.88	0.006048
2250.52	0.00601
2260.16	0.007035
2269.8	0.007949
2279.45	0.008912
2289.09	0.009058
2298.73	0.00916
2308.38	0.00859
2318.02	0.00911
2327.66	0.007951
2337.3	0.008012
2346.94	0.00803
2356.59	0.008092
2366.23	0.007257
2375.87	0.007639
2385.51	0.007472
2395.16	0.007529
2404.8	0.007456
2414.44	0.008056
2424.08	0.009061
2433.72	0.009191
2443.37	0.008759
2453.01	0.009104
2462.65	0.008447
2472.29	0.010012
2481.94	0.009485
2491.58	0.008868
2501.22	0.008712
2510.86	0.010148
2520.51	0.010336
2530.15	0.009928
2539.79	0.010508
2549.43	0.009673
2559.07	0.009741
2568.72	0.011487
2578.36	0.010666
2588	0.011198
2597.64	0.010918
2607.29	0.011831
2616.93	0.010863
2626.57	0.011011
2636.21	0.011427
2645.86	0.011648
2655.5	0.011617
2665.14	0.010447
2674.78	0.010737
2684.43	0.010886
2694.07	0.011535
2703.71	0.011378
2713.35	0.011469
2722.99	0.011247
2732.64	0.011458
2742.28	0.011742
2751.92	0.011719
2761.56	0.012258
2771.21	0.012148
2780.85	0.012717
2790.49	0.012656
2800.13	0.013539
2809.78	0.013807
2819.42	0.014941
2829.06	0.01645
2838.7	0.018935
2848.34	0.018353
2857.99	0.019972
2867.63	0.020545
2877.27	0.021148
2886.91	0.021107
2896.56	0.021204
2906.2	0.024725
2915.84	0.02985
2925.48	0.029922
2935.13	0.025261
2944.77	0.02464
2954.41	0.027081
2964.05	0.025689
2973.7	0.020395
2983.34	0.018748
2992.98	0.018524
3002.62	0.01921
3012.26	0.018844
3021.91	0.01984
3031.55	0.018945
3041.19	0.019724
3050.83	0.019439
3060.48	0.020271
3070.12	0.021017
3079.76	0.022616
3089.4	0.022529
3099.05	0.023327
3108.69	0.023168
3118.33	0.025309
3127.97	0.024579
3137.61	0.025187
3147.26	0.023714
3156.9	0.02543
3166.54	0.026516
3176.18	0.025504
3185.83	0.027473
3195.47	0.027382
3205.11	0.028643
3214.75	0.028899
3224.4	0.027707
3234.04	0.029782
3243.68	0.030423
3253.32	0.031111
3262.97	0.030247
3272.61	0.03063
3282.25	0.030228
3291.89	0.032733
3301.53	0.031206
3311.18	0.032023
3320.82	0.034317
3330.46	0.033438
3340.1	0.033131
3349.75	0.034098
3359.39	0.034552
3369.03	0.033922
3378.67	0.034647
3388.32	0.035614
3397.96	0.034707
3407.6	0.035481
3417.24	0.035896
3426.89	0.03578
3436.53	0.036455
3446.17	0.034426
3455.81	0.035381
3465.45	0.034051
3475.1	0.034969
3484.74	0.035863
3494.38	0.032551
3504.02	0.033694
3513.67	0.032574
3523.31	0.031254
3532.95	0.0328
3542.59	0.031817
3552.24	0.031235
3561.88	0.03132
3571.52	0.030461
3581.16	0.030505
3590.8	0.0305
3600.45	0.033261
3610.09	0.033398
3619.73	0.033543
3629.37	0.030684
3639.02	0.032352
3648.66	0.023992
3658.3	0.023269
3667.94	0.019974
3677.59	0.016594
3687.23	0.01465
3696.87	0.019052
3706.51	0.01667
3716.16	0.016394
3725.8	0.01502
3735.44	0.013985
3745.08	0.013483
3754.72	0.015601
3764.37	0.015114
3774.01	0.014597
3783.65	0.01529
3793.29	0.016358
3802.94	0.014525
3812.58	0.015493
3822.22	0.013312
3831.86	0.016594
3841.51	0.014011
3851.15	0.014118
3860.79	0.015701
3870.43	0.013397
3880.07	0.016724
3889.72	0.016905
3899.36	0.014885
3909	0.015788
3918.64	0.015363
3928.29	0.016083
3937.93	0.018352
3947.57	0.018815
3957.21	0.016839
3966.86	0.016923
3976.5	0.019166
3986.14	0.018439
3995.78	0.018036
