Measurement: Infrared, Infrared Data RAW
Mineral: Pyrope
Rruff sample: R040159
Ideal chemistry: Mg_3_Al_2_(SiO_4_)_3_
Locality: Meronitz, Bohemia
Source: University of Arizona Mineral Museum
Description: Deep red crystal fragments
Measured chemistry: (Mg_2.17_Fe^2+^_0.47_Ca_0.34_Mn_0.02_)_Σ=3_(Al_1.86_Cr_0.11_Ti_0.03_)_Σ=2_((Si_0.99_Al_0.01_)_Σ=1_O_4_)_3_; trace amounts of Rb?
x	intensity
399.193	0.161917
408.835	0.185129
418.477	0.207482
428.12	0.229492
437.762	0.251608
447.404	0.256785
457.047	0.251023
466.689	0.219279
476.331	0.226449
485.974	0.19729
495.616	0.165788
505.258	0.138833
514.901	0.114059
524.543	0.107426
534.185	0.09907
543.828	0.071302
553.47	0.064024
563.112	0.117419
572.755	0.158117
582.397	0.112903
592.039	0.075908
601.682	0.049098
611.324	0.032736
620.966	0.026456
630.609	0.02325
640.251	0.023077
649.893	0.023392
659.536	0.022121
669.178	0.021015
678.82	0.021014
688.463	0.021979
698.105	0.023821
707.747	0.025869
717.39	0.028712
727.032	0.032684
736.674	0.037967
746.317	0.045047
755.959	0.054506
765.601	0.067183
775.244	0.083305
784.886	0.10463
794.528	0.131369
804.171	0.15694
813.813	0.168878
823.455	0.183476
833.098	0.214441
842.74	0.237617
852.382	0.248562
862.025	0.250938
871.667	0.238072
881.309	0.212193
890.952	0.217179
900.594	0.210478
910.236	0.177647
919.879	0.141785
929.521	0.108747
939.163	0.100028
948.806	0.142607
958.448	0.210631
968.09	0.215392
977.733	0.177389
987.375	0.142495
997.017	0.113004
1006.66	0.08621
1016.3	0.063822
1025.94	0.045746
1035.59	0.031405
1045.23	0.022774
1054.87	0.017967
1064.51	0.014599
1074.16	0.012511
1083.8	0.011403
1093.44	0.010512
1103.08	0.009555
1112.72	0.008829
1122.37	0.008228
1132.01	0.007798
1141.65	0.007098
1151.3	0.006554
1160.94	0.006004
1170.58	0.005647
1180.22	0.00502
1189.86	0.00453
1199.51	0.004361
1209.15	0.004136
1218.79	0.003837
1228.43	0.003746
1238.08	0.003834
1247.72	0.003585
1257.36	0.00388
1267	0.003902
1276.64	0.003797
1286.29	0.003908
1295.93	0.004156
1305.57	0.003974
1315.21	0.00428
1324.86	0.004542
1334.5	0.004658
1344.14	0.004885
1353.78	0.005109
1363.43	0.005289
1373.07	0.005689
1382.71	0.005789
1392.35	0.006085
1401.99	0.006318
1411.64	0.00661
1421.28	0.007317
1430.92	0.007848
1440.57	0.008166
1450.21	0.008575
1459.85	0.009079
1469.49	0.009022
1479.13	0.008643
1488.78	0.00863
1498.42	0.008273
1508.06	0.008166
1517.7	0.007731
1527.35	0.007735
1536.99	0.007524
1546.63	0.007681
1556.27	0.007972
1565.91	0.008214
1575.56	0.008537
1585.2	0.00834
1594.84	0.008587
1604.48	0.008758
1614.13	0.008623
1623.77	0.008726
1633.41	0.008462
1643.05	0.008182
1652.7	0.008643
1662.34	0.008238
1671.98	0.00842
1681.62	0.008399
1691.27	0.008372
1700.91	0.008601
1710.55	0.008423
1720.19	0.008717
1729.84	0.008901
1739.48	0.008959
1749.12	0.009036
1758.76	0.009138
1768.4	0.009429
1778.05	0.00927
1787.69	0.009669
1797.33	0.009575
1806.97	0.008952
1816.62	0.009007
1826.26	0.009436
1835.9	0.009178
1845.54	0.009179
1855.18	0.009323
1864.83	0.009447
1874.47	0.009643
1884.11	0.009206
1893.75	0.009333
1903.4	0.008543
1913.04	0.008877
1922.68	0.008481
1932.32	0.006764
1941.97	0.007269
1951.61	0.00724
1961.25	0.007583
1970.89	0.00647
1980.54	0.009845
1990.18	0.007596
1999.82	0.007716
2009.46	0.008548
2019.11	0.009918
2028.75	0.009833
2038.39	0.012553
2048.03	0.013162
2057.67	0.010473
2067.32	0.013166
2076.96	0.013603
2086.6	0.011694
2096.24	0.013341
2105.89	0.0135
2115.53	0.014049
2125.17	0.013985
2134.81	0.01109
2144.45	0.012571
2154.1	0.011903
2163.74	0.015087
2173.38	0.014708
2183.02	0.016284
2192.67	0.014725
2202.31	0.015675
2211.95	0.01528
2221.59	0.014986
2231.24	0.015097
2240.88	0.016361
2250.52	0.015157
2260.16	0.015692
2269.8	0.015798
2279.45	0.01643
2289.09	0.016936
2298.73	0.016268
2308.38	0.016056
2318.02	0.016193
2327.66	0.015777
2337.3	0.015143
2346.94	0.014908
2356.59	0.015746
2366.23	0.015543
2375.87	0.01525
2385.51	0.015388
2395.16	0.015595
2404.8	0.015619
2414.44	0.016274
2424.08	0.015757
2433.72	0.01619
2443.37	0.017294
2453.01	0.016628
2462.65	0.016684
2472.29	0.017158
2481.94	0.016553
2491.58	0.01636
2501.22	0.017123
2510.86	0.01786
2520.51	0.016419
2530.15	0.017051
2539.79	0.016741
2549.43	0.017877
2559.07	0.017537
2568.72	0.017463
2578.36	0.017464
2588	0.018371
2597.64	0.017851
2607.29	0.017691
2616.93	0.019025
2626.57	0.017819
2636.21	0.018271
2645.86	0.017859
2655.5	0.01781
2665.14	0.018244
2674.78	0.017853
2684.43	0.017751
2694.07	0.017527
2703.71	0.018015
2713.35	0.018295
2722.99	0.017778
2732.64	0.018459
2742.28	0.017874
2751.92	0.018942
2761.56	0.017794
2771.21	0.018729
2780.85	0.01821
2790.49	0.018997
2800.13	0.019143
2809.78	0.018728
2819.42	0.01883
2829.06	0.018895
2838.7	0.019643
2848.34	0.020332
2857.99	0.02031
2867.63	0.019559
2877.27	0.020244
2886.91	0.020469
2896.56	0.020301
2906.2	0.020574
2915.84	0.021169
2925.48	0.02078
2935.13	0.020467
2944.77	0.02049
2954.41	0.020185
2964.05	0.021597
2973.7	0.021146
2983.34	0.020587
2992.98	0.020724
3002.62	0.020702
3012.26	0.020368
3021.91	0.021363
3031.55	0.02118
3041.19	0.021461
3050.83	0.02113
3060.48	0.02148
3070.12	0.021956
3079.76	0.021949
3089.4	0.02285
3099.05	0.021913
3108.69	0.02305
3118.33	0.022392
3127.97	0.022664
3137.61	0.022967
3147.26	0.022565
3156.9	0.023366
3166.54	0.024009
3176.18	0.022874
3185.83	0.023404
3195.47	0.023469
3205.11	0.023
3214.75	0.023129
3224.4	0.024094
3234.04	0.024385
3243.68	0.023642
3253.32	0.024547
3262.97	0.023739
3272.61	0.024082
3282.25	0.023938
3291.89	0.024477
3301.53	0.023607
3311.18	0.023062
3320.82	0.023897
3330.46	0.023815
3340.1	0.024583
3349.75	0.02349
3359.39	0.023967
3369.03	0.024798
3378.67	0.025028
3388.32	0.024593
3397.96	0.025278
3407.6	0.024825
3417.24	0.024923
3426.89	0.025529
3436.53	0.026762
3446.17	0.025199
3455.81	0.02404
3465.45	0.025498
3475.1	0.024685
3484.74	0.024638
3494.38	0.024353
3504.02	0.024578
3513.67	0.023761
3523.31	0.025084
3532.95	0.024096
3542.59	0.024682
3552.24	0.024766
3561.88	0.024772
3571.52	0.024492
3581.16	0.023136
3590.8	0.025408
3600.45	0.023812
3610.09	0.024005
3619.73	0.022516
3629.37	0.024486
3639.02	0.021666
3648.66	0.022468
3658.3	0.022906
3667.94	0.023789
3677.59	0.022158
3687.23	0.0225
3696.87	0.023999
3706.51	0.024107
3716.16	0.022322
3725.8	0.025109
3735.44	0.023263
3745.08	0.022125
3754.72	0.024336
3764.37	0.023929
3774.01	0.02354
3783.65	0.023
3793.29	0.024504
3802.94	0.023088
3812.58	0.024575
3822.22	0.023404
3831.86	0.022524
3841.51	0.023709
3851.15	0.025262
3860.79	0.021977
3870.43	0.023122
3880.07	0.023948
3889.72	0.021531
3899.36	0.024613
3909	0.022367
3918.64	0.023271
3928.29	0.024597
3937.93	0.022472
3947.57	0.023646
3957.21	0.025297
3966.86	0.02499
3976.5	0.024789
3986.14	0.02434
3995.78	0.025216
