Measurement: Infrared, Infrared Data RAW
Mineral: Wollastonite
Rruff sample: R040131
Ideal chemistry: CaSiO_3_
Locality: In-Ne-Koh-Pah Gorge, Jacumba, San Diego County, California, USA
Source: University of Arizona Mineral Museum
Description: White coarsely crystalline massive
Measured chemistry: Ca_1.01_Si_1.00_O_3_
x	intensity
399.193	0.132833
408.835	0.14466
418.477	0.118439
428.12	0.174855
437.762	0.27195
447.404	0.344107
457.047	0.320775
466.689	0.268756
476.331	0.238077
485.974	0.172035
495.616	0.13022
505.258	0.128149
514.901	0.119098
524.543	0.086581
534.185	0.067028
543.828	0.056638
553.47	0.071061
563.112	0.109074
572.755	0.064404
582.397	0.028809
592.039	0.0226
601.682	0.021385
611.324	0.024609
620.966	0.032886
630.609	0.054029
640.251	0.116513
649.893	0.073905
659.536	0.0295
669.178	0.035813
678.82	0.068132
688.463	0.048185
698.105	0.024237
707.747	0.02039
717.39	0.020671
727.032	0.020679
736.674	0.021594
746.317	0.022788
755.959	0.025628
765.601	0.028817
775.244	0.034145
784.886	0.040208
794.528	0.046243
804.171	0.053013
813.813	0.062214
823.455	0.077536
833.098	0.098963
842.74	0.130773
852.382	0.178827
862.025	0.248346
871.667	0.353284
881.309	0.42636
890.952	0.513009
900.594	0.517032
910.236	0.388566
919.879	0.357946
929.521	0.3482
939.163	0.30698
948.806	0.26263
958.448	0.261577
968.09	0.23562
977.733	0.143582
987.375	0.119687
997.017	0.209417
1006.66	0.320416
1016.3	0.308834
1025.94	0.268351
1035.59	0.200458
1045.23	0.199948
1054.87	0.233244
1064.51	0.222711
1074.16	0.168483
1083.8	0.140342
1093.44	0.125371
1103.08	0.100914
1112.72	0.072924
1122.37	0.04512
1132.01	0.02675
1141.65	0.019674
1151.3	0.017117
1160.94	0.016225
1170.58	0.015124
1180.22	0.014061
1189.86	0.013088
1199.51	0.011738
1209.15	0.01071
1218.79	0.009913
1228.43	0.008996
1238.08	0.008298
1247.72	0.007994
1257.36	0.007489
1267	0.007444
1276.64	0.007001
1286.29	0.006954
1295.93	0.006907
1305.57	0.007405
1315.21	0.007752
1324.86	0.008121
1334.5	0.008942
1344.14	0.00945
1353.78	0.010805
1363.43	0.012488
1373.07	0.015042
1382.71	0.019033
1392.35	0.024661
1401.99	0.030957
1411.64	0.038731
1421.28	0.044867
1430.92	0.047887
1440.57	0.048877
1450.21	0.047797
1459.85	0.045102
1469.49	0.041535
1479.13	0.03751
1488.78	0.033881
1498.42	0.029119
1508.06	0.025365
1517.7	0.021382
1527.35	0.01821
1536.99	0.016089
1546.63	0.014856
1556.27	0.014269
1565.91	0.013513
1575.56	0.01324
1585.2	0.012823
1594.84	0.012442
1604.48	0.011677
1614.13	0.01117
1623.77	0.010384
1633.41	0.010252
1643.05	0.009837
1652.7	0.009549
1662.34	0.008678
1671.98	0.008406
1681.62	0.00801
1691.27	0.007734
1700.91	0.008586
1710.55	0.00799
1720.19	0.008737
1729.84	0.009371
1739.48	0.009761
1749.12	0.008437
1758.76	0.007414
1768.4	0.006631
1778.05	0.006724
1787.69	0.00749
1797.33	0.007452
1806.97	0.006986
1816.62	0.006683
1826.26	0.006232
1835.9	0.006522
1845.54	0.007216
1855.18	0.00687
1864.83	0.006313
1874.47	0.006408
1884.11	0.007239
1893.75	0.007426
1903.4	0.008235
1913.04	0.0063
1922.68	0.006011
1932.32	0.004754
1941.97	0.003558
1951.61	0.004022
1961.25	0.006602
1970.89	0.004853
1980.54	0.008664
1990.18	0.004886
1999.82	0.002964
2009.46	0.002079
2019.11	-6e-05
2028.75	0.000359
2038.39	0.002738
2048.03	0.0054
2057.67	0.005769
2067.32	0.006349
2076.96	0.005795
2086.6	0.007215
2096.24	0.006128
2105.89	0.007236
2115.53	0.006708
2125.17	0.00582
2134.81	0.003077
2144.45	0.003846
2154.1	-0.000209
2163.74	0.008887
2173.38	0.005505
2183.02	0.005029
2192.67	0.006997
2202.31	0.008288
2211.95	0.008655
2221.59	0.007324
2231.24	0.008581
2240.88	0.012216
2250.52	0.011478
2260.16	0.012116
2269.8	0.01346
2279.45	0.014343
2289.09	0.013991
2298.73	0.013998
2308.38	0.012792
2318.02	0.015038
2327.66	0.01445
2337.3	0.014513
2346.94	0.013922
2356.59	0.014707
2366.23	0.014527
2375.87	0.014932
2385.51	0.013833
2395.16	0.014506
2404.8	0.014943
2414.44	0.014232
2424.08	0.015066
2433.72	0.015319
2443.37	0.014743
2453.01	0.01512
2462.65	0.014453
2472.29	0.014649
2481.94	0.015708
2491.58	0.014776
2501.22	0.014745
2510.86	0.015808
2520.51	0.016028
2530.15	0.01628
2539.79	0.014983
2549.43	0.016611
2559.07	0.016593
2568.72	0.017154
2578.36	0.016257
2588	0.01695
2597.64	0.017129
2607.29	0.01715
2616.93	0.017508
2626.57	0.017497
2636.21	0.017752
2645.86	0.017292
2655.5	0.017916
2665.14	0.017195
2674.78	0.017524
2684.43	0.017131
2694.07	0.016725
2703.71	0.018368
2713.35	0.017857
2722.99	0.018144
2732.64	0.017482
2742.28	0.018024
2751.92	0.018274
2761.56	0.018399
2771.21	0.017975
2780.85	0.018113
2790.49	0.018993
2800.13	0.018975
2809.78	0.018685
2819.42	0.019613
2829.06	0.018803
2838.7	0.020042
2848.34	0.019647
2857.99	0.021784
2867.63	0.020409
2877.27	0.02121
2886.91	0.02073
2896.56	0.021549
2906.2	0.020859
2915.84	0.022822
2925.48	0.022978
2935.13	0.024385
2944.77	0.022553
2954.41	0.023086
2964.05	0.023935
2973.7	0.021441
2983.34	0.021597
2992.98	0.021174
3002.62	0.021631
3012.26	0.02277
3021.91	0.021996
3031.55	0.022267
3041.19	0.022563
3050.83	0.023333
3060.48	0.023252
3070.12	0.022541
3079.76	0.023693
3089.4	0.024844
3099.05	0.024607
3108.69	0.024975
3118.33	0.026121
3127.97	0.023645
3137.61	0.024685
3147.26	0.025321
3156.9	0.024828
3166.54	0.025494
3176.18	0.026327
3185.83	0.026674
3195.47	0.027052
3205.11	0.025636
3214.75	0.025877
3224.4	0.026893
3234.04	0.027373
3243.68	0.028623
3253.32	0.027761
3262.97	0.028305
3272.61	0.027788
3282.25	0.027346
3291.89	0.028649
3301.53	0.027585
3311.18	0.027308
3320.82	0.027293
3330.46	0.030561
3340.1	0.030434
3349.75	0.028608
3359.39	0.029437
3369.03	0.030822
3378.67	0.028381
3388.32	0.030714
3397.96	0.030686
3407.6	0.030125
3417.24	0.02898
3426.89	0.030832
3436.53	0.028183
3446.17	0.0299
3455.81	0.028234
3465.45	0.029552
3475.1	0.027675
3484.74	0.026007
3494.38	0.026168
3504.02	0.029829
3513.67	0.029174
3523.31	0.02843
3532.95	0.029093
3542.59	0.027258
3552.24	0.029601
3561.88	0.02807
3571.52	0.027253
3581.16	0.027644
3590.8	0.027811
3600.45	0.027552
3610.09	0.026832
3619.73	0.02709
3629.37	0.028463
3639.02	0.026163
3648.66	0.02745
3658.3	0.025277
3667.94	0.025085
3677.59	0.025248
3687.23	0.026294
3696.87	0.02388
3706.51	0.026589
3716.16	0.026995
3725.8	0.0264
3735.44	0.028643
3745.08	0.027159
3754.72	0.025852
3764.37	0.027624
3774.01	0.02892
3783.65	0.026362
3793.29	0.026146
3802.94	0.030138
3812.58	0.027716
3822.22	0.028463
3831.86	0.028979
3841.51	0.029229
3851.15	0.029016
3860.79	0.028804
3870.43	0.028327
3880.07	0.028676
3889.72	0.028796
3899.36	0.028558
3909	0.0289
3918.64	0.030824
3928.29	0.030879
3937.93	0.028301
3947.57	0.027995
3957.21	0.029033
3966.86	0.02798
3976.5	0.031381
3986.14	0.029088
3995.78	0.028267
