Measurement: Infrared, Infrared Data RAW
Mineral: Zinnwaldite
Rruff sample: R040138
Ideal chemistry: K(Al,Fe,Li)_3_(Si,Al)_4_O_10_(OH)F
Locality: TÃ¸rdal, Telemark, Norway
Source: University of Arizona Mineral Museum
Description: Dark green mica book, polytype 1M
Measured chemistry: (K_0.96_Na_0.04_)(Al_0.35_Fe^2+^_0.29_Li_0.27_Mg_0.04_Mn_0.03_Ti_0.02_)_3_(Si_0.66_Al_0.34_)_4_O_10_((OH)_0.64_F_0.36_)_2_
x	intensity
399.193	0.317918
408.835	0.330583
418.477	0.342422
428.12	0.349294
437.762	0.34993
447.404	0.330169
457.047	0.292299
466.689	0.238207
476.331	0.190207
485.974	0.186542
495.616	0.173885
505.258	0.15846
514.901	0.174233
524.543	0.201219
534.185	0.234814
543.828	0.27184
553.47	0.307879
563.112	0.331734
572.755	0.343495
582.397	0.348527
592.039	0.344792
601.682	0.334628
611.324	0.316258
620.966	0.289853
630.609	0.287209
640.251	0.29836
649.893	0.280893
659.536	0.261258
669.178	0.244459
678.82	0.228918
688.463	0.215477
698.105	0.204281
707.747	0.194191
717.39	0.182897
727.032	0.172632
736.674	0.163216
746.317	0.154898
755.959	0.147723
765.601	0.141409
775.244	0.136039
784.886	0.128015
794.528	0.121892
804.171	0.11349
813.813	0.106104
823.455	0.100643
833.098	0.094611
842.74	0.087603
852.382	0.079286
862.025	0.071037
871.667	0.062808
881.309	0.055432
890.952	0.051236
900.594	0.049628
910.236	0.050103
919.879	0.05293
929.521	0.057553
939.163	0.064982
948.806	0.074922
958.448	0.087356
968.09	0.099872
977.733	0.106627
987.375	0.110536
997.017	0.1144
1006.66	0.116068
1016.3	0.109427
1025.94	0.091999
1035.59	0.078258
1045.23	0.071917
1054.87	0.070501
1064.51	0.069957
1074.16	0.068855
1083.8	0.069318
1093.44	0.066554
1103.08	0.061471
1112.72	0.054838
1122.37	0.048618
1132.01	0.04318
1141.65	0.039019
1151.3	0.035676
1160.94	0.034359
1170.58	0.03196
1180.22	0.029163
1189.86	0.026804
1199.51	0.023873
1209.15	0.020144
1218.79	0.015973
1228.43	0.012741
1238.08	0.010914
1247.72	0.009521
1257.36	0.008683
1267	0.007564
1276.64	0.006926
1286.29	0.006718
1295.93	0.00623
1305.57	0.006134
1315.21	0.005875
1324.86	0.006059
1334.5	0.005858
1344.14	0.005994
1353.78	0.006374
1363.43	0.006565
1373.07	0.008188
1382.71	0.007191
1392.35	0.006763
1401.99	0.00709
1411.64	0.007902
1421.28	0.008002
1430.92	0.008185
1440.57	0.008933
1450.21	0.010151
1459.85	0.010526
1469.49	0.008553
1479.13	0.007037
1488.78	0.006623
1498.42	0.006629
1508.06	0.006894
1517.7	0.00645
1527.35	0.006517
1536.99	0.006817
1546.63	0.007097
1556.27	0.007391
1565.91	0.007486
1575.56	0.007591
1585.2	0.007229
1594.84	0.007191
1604.48	0.007148
1614.13	0.007097
1623.77	0.007187
1633.41	0.007158
1643.05	0.006961
1652.7	0.006974
1662.34	0.0059
1671.98	0.005764
1681.62	0.0052
1691.27	0.004802
1700.91	0.005057
1710.55	0.004681
1720.19	0.00462
1729.84	0.004573
1739.48	0.004986
1749.12	0.004233
1758.76	0.003952
1768.4	0.003817
1778.05	0.004116
1787.69	0.003921
1797.33	0.003634
1806.97	0.003556
1816.62	0.003517
1826.26	0.003474
1835.9	0.003723
1845.54	0.003515
1855.18	0.00348
1864.83	0.003512
1874.47	0.003479
1884.11	0.003312
1893.75	0.003609
1903.4	0.003123
1913.04	0.002775
1922.68	0.002184
1932.32	0.002751
1941.97	-7.6e-05
1951.61	0.001285
1961.25	-0.000137
1970.89	-0.001091
1980.54	0.000875
1990.18	0.002556
1999.82	0.000999
2009.46	0.00051
2019.11	0.001273
2028.75	-0.000729
2038.39	0.00131
2048.03	0.002233
2057.67	0.00375
2067.32	0.003167
2076.96	0.00343
2086.6	0.004159
2096.24	0.003054
2105.89	0.004015
2115.53	0.005024
2125.17	0.00332
2134.81	0.001422
2144.45	0.001341
2154.1	-0.001365
2163.74	0.005197
2173.38	0.002659
2183.02	0.003009
2192.67	0.004751
2202.31	0.005071
2211.95	0.005042
2221.59	0.00577
2231.24	0.007363
2240.88	0.00543
2250.52	0.004508
2260.16	0.005971
2269.8	0.007423
2279.45	0.007618
2289.09	0.006817
2298.73	0.007683
2308.38	0.008257
2318.02	0.008735
2327.66	0.008863
2337.3	0.008629
2346.94	0.007786
2356.59	0.008753
2366.23	0.008571
2375.87	0.007133
2385.51	0.007403
2395.16	0.007005
2404.8	0.006803
2414.44	0.007038
2424.08	0.007799
2433.72	0.006637
2443.37	0.00774
2453.01	0.008225
2462.65	0.00717
2472.29	0.007896
2481.94	0.008045
2491.58	0.00789
2501.22	0.007486
2510.86	0.008055
2520.51	0.007811
2530.15	0.007342
2539.79	0.008268
2549.43	0.008891
2559.07	0.008041
2568.72	0.008766
2578.36	0.008642
2588	0.009213
2597.64	0.00855
2607.29	0.009526
2616.93	0.009289
2626.57	0.009945
2636.21	0.010171
2645.86	0.009815
2655.5	0.010099
2665.14	0.009801
2674.78	0.009948
2684.43	0.009785
2694.07	0.009539
2703.71	0.010356
2713.35	0.010393
2722.99	0.010158
2732.64	0.010812
2742.28	0.011178
2751.92	0.011074
2761.56	0.011281
2771.21	0.012322
2780.85	0.011879
2790.49	0.01167
2800.13	0.011936
2809.78	0.012025
2819.42	0.013033
2829.06	0.014009
2838.7	0.01598
2848.34	0.015405
2857.99	0.016636
2867.63	0.017377
2877.27	0.017027
2886.91	0.017567
2896.56	0.018328
2906.2	0.020011
2915.84	0.02383
2925.48	0.023674
2935.13	0.020753
2944.77	0.020274
2954.41	0.022325
2964.05	0.019632
2973.7	0.017091
2983.34	0.01601
2992.98	0.015754
3002.62	0.015559
3012.26	0.016122
3021.91	0.015561
3031.55	0.016695
3041.19	0.01667
3050.83	0.017312
3060.48	0.017378
3070.12	0.017963
3079.76	0.01814
3089.4	0.018761
3099.05	0.018232
3108.69	0.019133
3118.33	0.019266
3127.97	0.019671
3137.61	0.020675
3147.26	0.021472
3156.9	0.021135
3166.54	0.022016
3176.18	0.022652
3185.83	0.021965
3195.47	0.022733
3205.11	0.023444
3214.75	0.022957
3224.4	0.022447
3234.04	0.024276
3243.68	0.023793
3253.32	0.024297
3262.97	0.024972
3272.61	0.025444
3282.25	0.025413
3291.89	0.026441
3301.53	0.02645
3311.18	0.027057
3320.82	0.02674
3330.46	0.026893
3340.1	0.02778
3349.75	0.027302
3359.39	0.027897
3369.03	0.027196
3378.67	0.028765
3388.32	0.028588
3397.96	0.028762
3407.6	0.029227
3417.24	0.029393
3426.89	0.029422
3436.53	0.029412
3446.17	0.029078
3455.81	0.029304
3465.45	0.028922
3475.1	0.028348
3484.74	0.028987
3494.38	0.029112
3504.02	0.029181
3513.67	0.02797
3523.31	0.027919
3532.95	0.027706
3542.59	0.027551
3552.24	0.026591
3561.88	0.026582
3571.52	0.028032
3581.16	0.026518
3590.8	0.025951
3600.45	0.026559
3610.09	0.024257
3619.73	0.023242
3629.37	0.022921
3639.02	0.02337
3648.66	0.020535
3658.3	0.022157
3667.94	0.018453
3677.59	0.019114
3687.23	0.016887
3696.87	0.017685
3706.51	0.016163
3716.16	0.015978
3725.8	0.017441
3735.44	0.018095
3745.08	0.015521
3754.72	0.01742
3764.37	0.017525
3774.01	0.018142
3783.65	0.017601
3793.29	0.015739
3802.94	0.017722
3812.58	0.0175
3822.22	0.018948
3831.86	0.017033
3841.51	0.018752
3851.15	0.02
3860.79	0.017371
3870.43	0.018101
3880.07	0.019942
3889.72	0.017165
3899.36	0.019063
3909	0.019631
3918.64	0.018733
3928.29	0.018132
3937.93	0.020055
3947.57	0.019349
3957.21	0.018507
3966.86	0.019596
3976.5	0.01912
3986.14	0.019918
3995.78	0.0189
