Measurement: Infrared, Infrared Data Processed
Mineral: Actinolite
Rruff sample: R060045
Ideal chemistry: Ca_2_(Mg_4.5-2.5_Fe^2+^_0.5-2.5_)Si_8_O_22_(OH)_2_
Locality: Colorado, USA
Source: University of Arizona Mineral Museum
Description: Green prismatic crystals in a radial arrangement
Measured chemistry: (Ca_1.99_Na_0.01_)_Σ=2_(Mg_4.20_Fe^2+^_0.59_Al_0.09_Fe^3+^_0.08_Mn_0.02_Ti_0.01_)_Σ=5_(Si_7.82_Al_0.18_)_Σ=8_O_22_(OH)_2_
x	intensity
399.193	0.253435
408.835	0.284359
418.477	0.245099
428.12	0.267885
437.762	0.327662
447.404	0.309887
457.047	0.286398
466.689	0.259128
476.331	0.216679
485.974	0.177919
495.616	0.193807
505.258	0.207205
514.901	0.16647
524.543	0.148735
534.185	0.130613
543.828	0.0968347
553.47	0.0678137
563.112	0.0465924
572.755	0.032092
582.397	0.0240064
592.039	0.0204316
601.682	0.0199013
611.324	0.0221842
620.966	0.025816
630.609	0.039005
640.251	0.0577077
649.893	0.0524353
659.536	0.0619926
669.178	0.055179
678.82	0.0771668
688.463	0.0832533
698.105	0.0526351
707.747	0.0393559
717.39	0.0411048
727.032	0.0456585
736.674	0.0543507
746.317	0.0777843
755.959	0.138747
765.601	0.0681665
775.244	0.0441482
784.886	0.0404164
794.528	0.0409753
804.171	0.0419823
813.813	0.0440603
823.455	0.0520814
833.098	0.0648614
842.74	0.0826757
852.382	0.0975912
862.025	0.11444
871.667	0.141175
881.309	0.167127
890.952	0.202144
900.594	0.256823
910.236	0.3267
919.879	0.34179
929.521	0.280573
939.163	0.347402
948.806	0.391422
958.448	0.359805
968.09	0.325031
977.733	0.305291
987.375	0.293146
997.017	0.250583
1006.66	0.196764
1016.3	0.155699
1025.94	0.129313
1035.59	0.143671
1045.23	0.143047
1054.87	0.150361
1064.51	0.147137
1074.16	0.13167
1083.8	0.122129
1093.44	0.129149
1103.08	0.128719
1112.72	0.109646
1122.37	0.0820409
1132.01	0.062469
1141.65	0.0388368
1151.3	0.0245024
1160.94	0.0185328
1170.58	0.0163455
1180.22	0.0136968
1189.86	0.0120951
1199.51	0.0106546
1209.15	0.00942083
1218.79	0.00815836
1228.43	0.0069552
1238.08	0.00672953
1247.72	0.00624381
1257.36	0.00567541
1267	0.00574016
1276.64	0.00551269
1286.29	0.00544946
1295.93	0.00585546
1305.57	0.00493952
1315.21	0.00528429
1324.86	0.00554209
1334.5	0.00572295
1344.14	0.00633281
1353.78	0.0070127
1363.43	0.00764394
1373.07	0.00856026
1382.71	0.00965345
1392.35	0.01153
1401.99	0.0131329
1411.64	0.0154682
1421.28	0.0177623
1430.92	0.0203724
1440.57	0.0205378
1450.21	0.0213443
1459.85	0.0206119
1469.49	0.0191696
1479.13	0.0176437
1488.78	0.0161026
1498.42	0.0146479
1508.06	0.0125684
1517.7	0.0111834
1527.35	0.00951478
1536.99	0.008705
1546.63	0.00820103
1556.27	0.00796287
1565.91	0.00793244
1575.56	0.00848939
1585.2	0.00895899
1594.84	0.00938255
1604.48	0.00978254
1614.13	0.00955124
1623.77	0.00956418
1633.41	0.00820229
1643.05	0.00845572
1652.7	0.00810184
1662.34	0.00770551
1671.98	0.00763549
1681.62	0.0077926
1691.27	0.00820925
1700.91	0.00728346
1710.55	0.00787774
1720.19	0.00840411
1729.84	0.0104139
1739.48	0.00910405
1749.12	0.00714622
1758.76	0.006535
1768.4	0.007225
1778.05	0.00695854
1787.69	0.00797166
1797.33	0.00645284
1806.97	0.00659579
1816.62	0.00511537
1826.26	0.00536912
1835.9	0.00577436
1845.54	0.00608887
1855.18	0.00537178
1864.83	0.00471612
1874.47	0.00680731
1884.11	0.00547407
1893.75	0.00517165
1903.4	0.00685447
1913.04	0.00602796
1922.68	0.00546899
1932.32	0.00671634
1941.97	0.00315866
1951.61	0.00750238
1961.25	0.00619794
1970.89	0.00660872
1980.54	0.00958851
1990.18	0.00419855
1999.82	0.0102924
2009.46	0.00577053
2019.11	0.0106008
2028.75	0.00975104
2038.39	0.00978524
2048.03	0.00982039
2057.67	0.00910224
2067.32	0.00858372
2076.96	0.0121075
2086.6	0.0106701
2096.24	0.00963043
2105.89	0.00899099
2115.53	0.00914118
2125.17	0.0115264
2134.81	0.00614401
2144.45	0.0094992
2154.1	0.0109803
2163.74	0.0154518
2173.38	0.00875507
2183.02	0.0144265
2192.67	0.0109745
2202.31	0.0147413
2211.95	0.0129957
2221.59	0.00780576
2231.24	0.0131976
2240.88	0.0124783
2250.52	0.015566
2260.16	0.0111688
2269.8	0.0124506
2279.45	0.0159304
2289.09	0.014736
2298.73	0.013571
2308.38	0.0135864
2318.02	0.0129914
2327.66	0.0129964
2337.3	0.0117559
2346.94	0.0121873
2356.59	0.0117323
2366.23	0.0115722
2375.87	0.0133017
2385.51	0.0130294
2395.16	0.0126954
2404.8	0.0126948
2414.44	0.0128478
2424.08	0.0144066
2433.72	0.0143041
2443.37	0.0151518
2453.01	0.0139726
2462.65	0.013274
2472.29	0.0141167
2481.94	0.0127896
2491.58	0.0155119
2501.22	0.0155239
2510.86	0.0139739
2520.51	0.0168258
2530.15	0.0128519
2539.79	0.0160791
2549.43	0.0150961
2559.07	0.0166529
2568.72	0.0156238
2578.36	0.0145763
2588	0.0161772
2597.64	0.0177867
2607.29	0.0172007
2616.93	0.0172356
2626.57	0.0177616
2636.21	0.0179046
2645.86	0.0176667
2655.5	0.017467
2665.14	0.0165801
2674.78	0.0169391
2684.43	0.0170969
2694.07	0.0163259
2703.71	0.0165528
2713.35	0.0173142
2722.99	0.0167691
2732.64	0.0181935
2742.28	0.0181146
2751.92	0.0186098
2761.56	0.0179933
2771.21	0.019686
2780.85	0.0185671
2790.49	0.0195606
2800.13	0.019363
2809.78	0.0200942
2819.42	0.0189108
2829.06	0.0187208
2838.7	0.0202884
2848.34	0.0185037
2857.99	0.0200342
2867.63	0.0223387
2877.27	0.021264
2886.91	0.0206151
2896.56	0.0211007
2906.2	0.0222867
2915.84	0.0204464
2925.48	0.0217402
2935.13	0.023901
2944.77	0.0223249
2954.41	0.0255633
2964.05	0.0258114
2973.7	0.0254386
2983.34	0.0227859
2992.98	0.0240499
3002.62	0.0232711
3012.26	0.0227874
3021.91	0.0236472
3031.55	0.023574
3041.19	0.0237892
3050.83	0.0247572
3060.48	0.0240245
3070.12	0.0248701
3079.76	0.0262383
3089.4	0.02383
3099.05	0.0248325
3108.69	0.0258825
3118.33	0.0244519
3127.97	0.0266616
3137.61	0.0273285
3147.26	0.0262306
3156.9	0.026422
3166.54	0.0265557
3176.18	0.0274947
3185.83	0.0282127
3195.47	0.0288403
3205.11	0.0287557
3214.75	0.0305188
3224.4	0.0288842
3234.04	0.0299461
3243.68	0.0282135
3253.32	0.0282479
3262.97	0.0286039
3272.61	0.0286121
3282.25	0.0274089
3291.89	0.0274834
3301.53	0.0280789
3311.18	0.0264056
3320.82	0.0301568
3330.46	0.0293677
3340.1	0.0322703
3349.75	0.0277332
3359.39	0.0292283
3369.03	0.0278813
3378.67	0.0301492
3388.32	0.0303944
3397.96	0.0291905
3407.6	0.0309864
3417.24	0.0346588
3426.89	0.0309187
3436.53	0.0317488
3446.17	0.0269971
3455.81	0.0294128
3465.45	0.0294038
3475.1	0.0299302
3484.74	0.0339896
3494.38	0.0294237
3504.02	0.0308962
3513.67	0.0298858
3523.31	0.0289948
3532.95	0.0307514
3542.59	0.029698
3552.24	0.0290798
3561.88	0.0328998
3571.52	0.0279123
3581.16	0.028571
3590.8	0.0300148
3600.45	0.0268354
3610.09	0.0261344
3619.73	0.026278
3629.37	0.0284149
3639.02	0.0292221
3648.66	0.0276844
3658.3	0.0407577
3667.94	0.0326989
3677.59	0.0253764
3687.23	0.0244582
3696.87	0.0243126
3706.51	0.0265123
3716.16	0.0247469
3725.8	0.0242866
3735.44	0.0263281
3745.08	0.0276657
3754.72	0.0257741
3764.37	0.0279591
3774.01	0.0243275
3783.65	0.0248109
3793.29	0.0232567
3802.94	0.0212546
3812.58	0.0245559
3822.22	0.0237831
3831.86	0.0240854
3841.51	0.0272778
3851.15	0.0212957
3860.79	0.0251454
3870.43	0.0251283
3880.07	0.0265835
3889.72	0.0240533
3899.36	0.0254295
3909	0.0264598
3918.64	0.0260948
3928.29	0.0245401
3937.93	0.0279236
3947.57	0.0269224
3957.21	0.0256995
3966.86	0.0276215
3976.5	0.0226849
3986.14	0.0238995
3995.78	0.0288072
