Measurement: Infrared, Infrared Data Processed
Mineral: Aeschynite-(Y)
Rruff sample: R080045
Ideal chemistry: (Y^3+^,Ca,Th^4+^)(Ti^4+^,Nb^5+^)_2_(O,OH)_6_
Locality: Hittero, Vest-Agder, Norway
Source: Herb Obodda
Description: Light brown glassy, from black amorphous sample R060312 after heating at T = 850 C for 18 hours
x	intensity
399.193	0.269285
408.835	0.274889
418.477	0.26704
428.12	0.260294
437.762	0.253022
447.404	0.24666
457.047	0.239241
466.689	0.233102
476.331	0.228053
485.974	0.227345
495.616	0.229259
505.258	0.230763
514.901	0.23257
524.543	0.23522
534.185	0.238898
543.828	0.242453
553.47	0.2447
563.112	0.243453
572.755	0.241512
582.397	0.237938
592.039	0.233188
601.682	0.226421
611.324	0.218667
620.966	0.209268
630.609	0.200531
640.251	0.192162
649.893	0.181871
659.536	0.172288
669.178	0.161635
678.82	0.149498
688.463	0.136566
698.105	0.125652
707.747	0.118978
717.39	0.11704
727.032	0.115629
736.674	0.113191
746.317	0.110281
755.959	0.106618
765.601	0.102653
775.244	0.0987629
784.886	0.0946627
794.528	0.0911195
804.171	0.0874138
813.813	0.0835035
823.455	0.0794877
833.098	0.0738509
842.74	0.0662186
852.382	0.0563626
862.025	0.0464936
871.667	0.0378976
881.309	0.0312898
890.952	0.0270878
900.594	0.0241701
910.236	0.0217172
919.879	0.0199999
929.521	0.0188365
939.163	0.0176894
948.806	0.0170086
958.448	0.0167707
968.09	0.0164287
977.733	0.0160901
987.375	0.0164622
997.017	0.0164974
1006.66	0.0162489
1016.3	0.0165115
1025.94	0.0168257
1035.59	0.0168476
1045.23	0.0169729
1054.87	0.017807
1064.51	0.0176091
1074.16	0.0173283
1083.8	0.0172484
1093.44	0.0172718
1103.08	0.0178027
1112.72	0.018017
1122.37	0.0178652
1132.01	0.0181838
1141.65	0.0186284
1151.3	0.0189364
1160.94	0.0190387
1170.58	0.0187641
1180.22	0.0187052
1189.86	0.0189462
1199.51	0.0188357
1209.15	0.0184349
1218.79	0.0185857
1228.43	0.0191848
1238.08	0.0198576
1247.72	0.020227
1257.36	0.0204149
1267	0.0209615
1276.64	0.0213215
1286.29	0.0215026
1295.93	0.0221137
1305.57	0.0229878
1315.21	0.0237315
1324.86	0.0245213
1334.5	0.0253957
1344.14	0.0262501
1353.78	0.0272982
1363.43	0.0283906
1373.07	0.0294261
1382.71	0.0300547
1392.35	0.0310478
1401.99	0.0318013
1411.64	0.0327629
1421.28	0.033557
1430.92	0.0345434
1440.57	0.0351629
1450.21	0.0360499
1459.85	0.0365687
1469.49	0.0358488
1479.13	0.0358578
1488.78	0.0364138
1498.42	0.0371548
1508.06	0.0382169
1517.7	0.0389596
1527.35	0.0398554
1536.99	0.0410322
1546.63	0.0417296
1556.27	0.0424324
1565.91	0.0423456
1575.56	0.0431756
1585.2	0.0431182
1594.84	0.0435507
1604.48	0.0441489
1614.13	0.0449317
1623.77	0.0459526
1633.41	0.0469025
1643.05	0.0472668
1652.7	0.0485629
1662.34	0.0482052
1671.98	0.047904
1681.62	0.0479601
1691.27	0.0480363
1700.91	0.0490522
1710.55	0.0499768
1720.19	0.0528568
1729.84	0.0537523
1739.48	0.052973
1749.12	0.0511618
1758.76	0.0506538
1768.4	0.0513184
1778.05	0.0520204
1787.69	0.0526912
1797.33	0.0531985
1806.97	0.0537368
1816.62	0.0542889
1826.26	0.055591
1835.9	0.0560461
1845.54	0.057034
1855.18	0.0577041
1864.83	0.0585543
1874.47	0.0588412
1884.11	0.060211
1893.75	0.0610235
1903.4	0.0619145
1913.04	0.0625684
1922.68	0.0631848
1932.32	0.0644338
1941.97	0.0646404
1951.61	0.0665504
1961.25	0.066761
1970.89	0.068085
1980.54	0.0722505
1990.18	0.0694774
1999.82	0.0701446
2009.46	0.0711583
2019.11	0.0709114
2028.75	0.0725193
2038.39	0.072126
2048.03	0.0724679
2057.67	0.0730998
2067.32	0.0736687
2076.96	0.0746971
2086.6	0.0740701
2096.24	0.0746038
2105.89	0.0758574
2115.53	0.0755748
2125.17	0.07489
2134.81	0.0757956
2144.45	0.0766623
2154.1	0.0754786
2163.74	0.0825364
2173.38	0.0815466
2183.02	0.0839481
2192.67	0.083473
2202.31	0.0835276
2211.95	0.0846059
2221.59	0.0846186
2231.24	0.0843178
2240.88	0.0853773
2250.52	0.0845581
2260.16	0.0855117
2269.8	0.0859214
2279.45	0.0868014
2289.09	0.0870837
2298.73	0.0870698
2308.38	0.0883154
2318.02	0.0886193
2327.66	0.0889108
2337.3	0.0890231
2346.94	0.0887633
2356.59	0.0894229
2366.23	0.0895163
2375.87	0.0895798
2385.51	0.0893887
2395.16	0.090136
2404.8	0.0911255
2414.44	0.0916941
2424.08	0.0925872
2433.72	0.0934166
2443.37	0.0938644
2453.01	0.0948791
2462.65	0.0949813
2472.29	0.0955743
2481.94	0.0960984
2491.58	0.0961328
2501.22	0.0969875
2510.86	0.0978595
2520.51	0.0985156
2530.15	0.0985109
2539.79	0.0993029
2549.43	0.0993281
2559.07	0.100226
2568.72	0.100763
2578.36	0.101891
2588	0.101956
2597.64	0.102407
2607.29	0.102822
2616.93	0.103877
2626.57	0.104634
2636.21	0.104792
2645.86	0.104876
2655.5	0.105647
2665.14	0.105605
2674.78	0.106052
2684.43	0.106457
2694.07	0.106867
2703.71	0.107914
2713.35	0.108256
2722.99	0.108913
2732.64	0.109547
2742.28	0.110139
2751.92	0.110462
2761.56	0.111182
2771.21	0.11207
2780.85	0.112364
2790.49	0.113022
2800.13	0.113462
2809.78	0.114599
2819.42	0.115263
2829.06	0.116263
2838.7	0.117314
2848.34	0.11962
2857.99	0.119388
2867.63	0.119777
2877.27	0.119867
2886.91	0.120385
2896.56	0.122095
2906.2	0.123074
2915.84	0.125293
2925.48	0.125779
2935.13	0.12412
2944.77	0.123277
2954.41	0.124061
2964.05	0.123484
2973.7	0.121833
2983.34	0.122164
2992.98	0.121955
3002.62	0.122366
3012.26	0.122609
3021.91	0.123699
3031.55	0.123808
3041.19	0.124246
3050.83	0.124924
3060.48	0.12506
3070.12	0.126541
3079.76	0.127128
3089.4	0.127126
3099.05	0.12808
3108.69	0.128807
3118.33	0.129131
3127.97	0.129959
3137.61	0.130386
3147.26	0.13103
3156.9	0.1319
3166.54	0.132054
3176.18	0.131601
3185.83	0.133089
3195.47	0.133391
3205.11	0.133358
3214.75	0.133914
3224.4	0.134269
3234.04	0.13515
3243.68	0.135664
3253.32	0.135958
3262.97	0.137066
3272.61	0.137108
3282.25	0.137408
3291.89	0.138163
3301.53	0.137176
3311.18	0.138016
3320.82	0.138655
3330.46	0.138757
3340.1	0.139048
3349.75	0.138772
3359.39	0.139585
3369.03	0.139109
3378.67	0.139222
3388.32	0.139653
3397.96	0.139925
3407.6	0.13879
3417.24	0.139675
3426.89	0.139393
3436.53	0.139466
3446.17	0.139523
3455.81	0.139259
3465.45	0.139148
3475.1	0.139281
3484.74	0.13909
3494.38	0.139755
3504.02	0.139467
3513.67	0.138781
3523.31	0.138509
3532.95	0.13917
3542.59	0.138058
3552.24	0.138469
3561.88	0.138588
3571.52	0.138214
3581.16	0.138163
3590.8	0.137413
3600.45	0.137312
3610.09	0.137969
3619.73	0.13739
3629.37	0.139064
3639.02	0.139026
3648.66	0.139666
3658.3	0.138009
3667.94	0.140039
3677.59	0.140944
3687.23	0.140174
3696.87	0.140627
3706.51	0.141446
3716.16	0.14013
3725.8	0.142192
3735.44	0.143317
3745.08	0.144336
3754.72	0.142787
3764.37	0.142316
3774.01	0.142971
3783.65	0.142945
3793.29	0.143902
3802.94	0.144243
3812.58	0.143827
3822.22	0.145117
3831.86	0.144697
3841.51	0.145131
3851.15	0.145898
3860.79	0.145556
3870.43	0.147543
3880.07	0.145894
3889.72	0.146796
3899.36	0.147709
3909	0.147536
3918.64	0.147554
3928.29	0.147532
3937.93	0.148723
3947.57	0.149072
3957.21	0.148671
3966.86	0.14837
3976.5	0.148931
3986.14	0.149345
3995.78	0.150106
