Measurement: Infrared, Infrared Data Processed
Mineral: Albite
Rruff sample: R040068
Ideal chemistry: NaAlSi_3_O_8_
Locality: Harding Pegmatite, Dixon, New Mexico, USA
Source: University of Arizona Mineral Museum
Description: Tan colored crystal fragment
Measured chemistry: (Na_0.99_Ca_0.01_)Al_1.00_(Si_0.99_Al_0.01_)_3_O_8_
x	intensity
399.192	0
408.839	0.199223
418.487	0.208973
428.134	0.15677
437.782	0.109917
447.429	0.0781708
457.077	0.115811
466.724	0.13081
476.372	0.121503
486.019	0.0678749
495.667	0.0570602
505.314	0.0623426
514.962	0.0855608
524.609	0.138724
534.257	0.143197
543.904	0.087223
553.552	0.0838327
563.199	0.101382
572.847	0.13583
582.494	0.168422
592.142	0.165939
601.789	0.131402
611.437	0.111299
621.084	0.0636692
630.732	0.0451822
640.379	0.0636272
650.027	0.104831
659.674	0.0490475
669.322	0.0299044
678.969	0.0285072
688.617	0.0315714
698.264	0.0380383
707.912	0.0501766
717.559	0.0834951
727.207	0.0886078
736.854	0.083848
746.502	0.104884
756.149	0.0939503
765.797	0.0893354
775.444	0.0523853
785.092	0.0848951
794.739	0.050272
804.387	0.030405
814.034	0.0254564
823.682	0.0261526
833.329	0.028306
842.977	0.0300856
852.624	0.0340118
862.272	0.0399275
871.919	0.0478954
881.567	0.0580759
891.214	0.0703754
900.862	0.0870285
910.509	0.108055
920.157	0.13417
929.804	0.166175
939.452	0.204784
949.099	0.252519
958.747	0.307353
968.394	0.362328
978.042	0.402853
987.689	0.409734
997.337	0.388822
1006.98	0.351725
1016.63	0.320334
1026.28	0.311452
1035.93	0.292332
1045.57	0.224454
1055.22	0.173552
1064.87	0.154322
1074.52	0.147047
1084.16	0.154827
1093.81	0.185643
1103.46	0.176701
1113.11	0.160606
1122.75	0.150551
1132.4	0.154307
1142.05	0.165131
1151.7	0.166624
1161.34	0.146426
1170.99	0.112378
1180.64	0.0841541
1190.29	0.0609636
1199.93	0.0424585
1209.58	0.0295076
1219.23	0.0194883
1228.88	0.0140009
1238.52	0.0104981
1248.17	0.00826263
1257.82	0.00645638
1267.47	0.0054388
1277.12	0.00447941
1286.76	0.00384235
1296.41	0.00328445
1306.06	0.00285149
1315.7	0.00286865
1325.35	0.00276852
1335	0.00251198
1344.65	0.00246334
1354.29	0.00259876
1363.94	0.00260735
1373.59	0.00226402
1383.24	0.00241947
1392.88	0.00230694
1402.53	0.0023222
1412.18	0.00231361
1421.83	0.00241375
1431.47	0.00235558
1441.12	0.00257111
1450.77	0.00255012
1460.42	0.00251961
1470.07	0.00252056
1479.71	0.00226307
1489.36	0.00194168
1499.01	0.00212002
1508.65	0.00170326
1518.3	0.00205612
1527.95	0.0023241
1537.6	0.00243568
1547.24	0.00273609
1556.89	0.0029211
1566.54	0.00314331
1576.19	0.00296021
1585.84	0.00403976
1595.48	0.00432873
1605.13	0.00437355
1614.78	0.00465012
1624.42	0.00440598
1634.07	0.00446701
1643.72	0.00449753
1653.37	0.0039711
1663.02	0.00400257
1672.66	0.00396061
1682.31	0.00352001
1691.96	0.00365353
1701.61	0.00273705
1711.25	0.00308132
1720.9	0.00312328
1730.55	0.00342464
1740.19	0.0025425
1749.84	0.00328731
1759.49	0.00313473
1769.14	0.00312996
1778.79	0.00311947
1788.43	0.0029583
1798.08	0.00277424
1807.73	0.00243759
1817.38	0.00201035
1827.02	0.00248623
1836.67	0.00155353
1846.32	0.00071907
1855.96	0.00110531
1865.61	0.000357628
1875.26	0.000243187
1884.91	-0.000398636
1894.56	-0.000496864
1904.2	-0.00108624
1913.85	-0.00169754
1923.5	-0.00199699
1933.14	-0.00350666
1942.79	-0.00506782
1952.44	-0.00566196
1962.09	-0.00771236
1971.73	-0.00903034
1981.38	-0.00744629
1991.03	-0.00731564
2000.68	-0.00752068
2010.33	-0.0079546
2019.97	-0.0102758
2029.62	-0.00885391
2039.27	-0.00754261
2048.91	-0.00641346
2058.56	-0.00537491
2068.21	-0.00295544
2077.86	-0.00342846
2087.51	-0.0028429
2097.15	-0.00274181
2106.8	-0.00230217
2116.45	-0.00170136
2126.09	-0.00391769
2135.74	-0.00596714
2145.39	-0.00476837
2155.04	-0.0121403
2164.68	-0.00414085
2174.33	-0.00732136
2183.98	-0.00649643
2193.63	-0.00550556
2203.28	-0.00399113
2212.92	-0.00310707
2222.57	-0.00212097
2232.22	-0.00351143
2241.86	-0.000824928
2251.51	-0.0021801
2261.16	-0.00141144
2270.81	-0.000523567
2280.45	0.000822067
2290.1	0.00102139
2299.75	0.00134182
2309.4	0.00108624
2319.05	0.00189877
2328.69	0.00166035
2338.34	0.0014267
2347.99	0.0017643
2357.64	0.00203705
2367.28	0.0010252
2376.93	0.00129986
2386.58	0.00181484
2396.22	0.00219059
2405.87	0.00212288
2415.52	0.00265026
2425.17	0.00259113
2434.82	0.00320053
2444.46	0.00335121
2454.11	0.00285053
2463.76	0.00407505
2473.41	0.00408077
2483.05	0.00409508
2492.7	0.00347328
2502.35	0.0034771
2511.99	0.00269127
2521.64	0.00359154
2531.29	0.00378323
2540.94	0.00327587
2550.59	0.0041275
2560.23	0.00339889
2569.88	0.00395012
2579.53	0.00423718
2589.18	0.00485992
2598.82	0.0045805
2608.47	0.00497818
2618.12	0.00498676
2627.76	0.00527
2637.41	0.00554848
2647.06	0.00493908
2656.71	0.00517178
2666.36	0.00392246
2676	0.00394821
2685.65	0.00459957
2695.3	0.00416946
2704.95	0.00400066
2714.59	0.00424767
2724.24	0.00440979
2733.89	0.00471973
2743.53	0.00412464
2753.18	0.00501537
2762.83	0.00470638
2772.48	0.00466156
2782.12	0.00463772
2791.77	0.00491047
2801.42	0.00536346
2811.07	0.00545502
2820.72	0.00491428
2830.36	0.00463581
2840.01	0.00461292
2849.66	0.00471497
2859.3	0.00477982
2868.95	0.0042696
2878.6	0.00467682
2888.25	0.00445557
2897.89	0.00583458
2907.54	0.00574207
2917.19	0.00515175
2926.84	0.00522709
2936.49	0.00554657
2946.13	0.00527
2955.78	0.00459385
2965.43	0.00427532
2975.07	0.00497913
2984.72	0.00541401
2994.37	0.00535774
3004.02	0.00564575
3013.66	0.0053339
3023.31	0.00576019
3032.96	0.00661182
3042.61	0.00527763
3052.26	0.00576305
3061.9	0.00712204
3071.55	0.00551033
3081.2	0.0061779
3090.84	0.00623512
3100.49	0.00734711
3110.14	0.00671101
3119.79	0.0067873
3129.43	0.00738716
3139.08	0.00625515
3148.73	0.00862884
3158.38	0.00628948
3168.03	0.00727463
3177.67	0.00554275
3187.32	0.00606251
3196.97	0.00765419
3206.61	0.00691986
3216.26	0.00685787
3225.91	0.00723171
3235.56	0.00637245
3245.2	0.00704193
3254.85	0.00795555
3264.5	0.00877094
3274.15	0.00926685
3283.8	0.00820637
3293.44	0.00706577
3303.09	0.00750446
3312.74	0.00768471
3322.39	0.00841427
3332.03	0.00948238
3341.68	0.0103035
3351.33	0.00811481
3360.97	0.0103035
3370.62	0.011013
3380.27	0.00925732
3389.92	0.0105791
3399.57	0.00879002
3409.21	0.00773621
3418.86	0.00875473
3428.51	0.00694943
3438.16	0.00920582
3447.8	0.00815773
3457.45	0.00814724
3467.1	0.00699902
3476.74	0.00771618
3486.39	0.00891781
3496.04	0.00836945
3505.69	0.00809002
3515.34	0.00845337
3524.98	0.00978279
3534.63	0.00852776
3544.28	0.00940132
3553.93	0.00671578
3563.57	0.00813866
3573.22	0.00860214
3582.87	0.00804329
3592.51	0.00885868
3602.16	0.00887489
3611.81	0.00939178
3621.46	0.00843906
3631.11	0.00938892
3640.75	0.00834465
3650.4	0.00579548
3660.05	0.0050869
3669.7	0.0053997
3679.34	0.00506496
3688.99	0.00400734
3698.64	0.00710678
3708.28	0.00480366
3717.93	0.00537014
3727.58	0.00323582
3737.23	0.00481033
3746.88	0.00425243
3756.52	0.00397873
3766.17	0.00418949
3775.82	0.00553131
3785.47	0.00502873
3795.11	0.00297928
3804.76	0.00501728
3814.41	0.0070734
3824.05	0.00545788
3833.7	0.00762653
3843.35	0.00717068
3853	0.00520229
3862.65	0.00651741
3872.29	0.00731087
3881.94	0.00441551
3891.59	0.00307751
3901.24	0.00704861
3910.88	0.00461865
3920.53	0.00620747
3930.18	0.00368595
3939.83	0.00383091
3949.47	0.00447273
3959.12	0.00584602
3968.77	0.00586987
3978.42	0.0035572
3988.06	0.00483894
3997.71	0.00617409
