Measurement: Infrared, Infrared Data Processed
Mineral: Alum-(K)
Rruff sample: R060014
Ideal chemistry: KAl(S^6+^O_4_)_2_12H_2_O
Locality: Tolfa, Italy
Source: American Museum of Natural History
Description: Colorless fragment
x	intensity
399.193	0.0488324
408.835	0.0592278
418.477	0.0642701
428.12	0.070855
437.762	0.0778513
447.404	0.0863357
457.047	0.0927947
466.689	0.0955612
476.331	0.0961829
485.974	0.0990129
495.616	0.10382
505.258	0.109003
514.901	0.114096
524.543	0.116682
534.185	0.12138
543.828	0.132383
553.47	0.151623
563.112	0.176624
572.755	0.197998
582.397	0.206821
592.039	0.20778
601.682	0.190847
611.324	0.182779
620.966	0.156594
630.609	0.156716
640.251	0.153439
649.893	0.152214
659.536	0.153147
669.178	0.154162
678.82	0.155117
688.463	0.152915
698.105	0.146966
707.747	0.136703
717.39	0.123132
727.032	0.108919
736.674	0.0963718
746.317	0.0862487
755.959	0.0786346
765.601	0.0726895
775.244	0.0680359
784.886	0.065501
794.528	0.0652559
804.171	0.0665497
813.813	0.0686224
823.455	0.0705109
833.098	0.0732147
842.74	0.077631
852.382	0.083927
862.025	0.0912051
871.667	0.0991893
881.309	0.107166
890.952	0.115608
900.594	0.123888
910.236	0.130543
919.879	0.131574
929.521	0.126259
939.163	0.117331
948.806	0.109168
958.448	0.10374
968.09	0.105168
977.733	0.10982
987.375	0.101228
997.017	0.10483
1006.66	0.114498
1016.3	0.133433
1025.94	0.167483
1035.59	0.221314
1045.23	0.296438
1054.87	0.363374
1064.51	0.381933
1074.16	0.384452
1083.8	0.419648
1093.44	0.381031
1103.08	0.28208
1112.72	0.193859
1122.37	0.131956
1132.01	0.0863367
1141.65	0.0585834
1151.3	0.0486325
1160.94	0.0460186
1170.58	0.0476899
1180.22	0.0536932
1189.86	0.0602978
1199.51	0.0490006
1209.15	0.0337648
1218.79	0.0278715
1228.43	0.025865
1238.08	0.0247675
1247.72	0.0241365
1257.36	0.0233498
1267	0.0228878
1276.64	0.0229101
1286.29	0.0231516
1295.93	0.0237961
1305.57	0.0245303
1315.21	0.0252087
1324.86	0.0259839
1334.5	0.0268376
1344.14	0.0279315
1353.78	0.0289743
1363.43	0.0295374
1373.07	0.0308207
1382.71	0.0323151
1392.35	0.0334214
1401.99	0.0346741
1411.64	0.0359894
1421.28	0.0368148
1430.92	0.038758
1440.57	0.0403273
1450.21	0.0415071
1459.85	0.0423676
1469.49	0.0439458
1479.13	0.046024
1488.78	0.0469806
1498.42	0.0483517
1508.06	0.0485276
1517.7	0.0512731
1527.35	0.0538378
1536.99	0.0557317
1546.63	0.0593799
1556.27	0.0614067
1565.91	0.0676987
1575.56	0.0712781
1585.2	0.0791637
1594.84	0.0849408
1604.48	0.0899224
1614.13	0.0919929
1623.77	0.0921719
1633.41	0.0909707
1643.05	0.0896014
1652.7	0.0819066
1662.34	0.0827244
1671.98	0.0788471
1681.62	0.0739676
1691.27	0.0692929
1700.91	0.0606727
1710.55	0.0589303
1720.19	0.0537814
1729.84	0.0510701
1739.48	0.0471409
1749.12	0.0452181
1758.76	0.0448576
1768.4	0.043114
1778.05	0.0422494
1787.69	0.0412548
1797.33	0.0398338
1806.97	0.0387762
1816.62	0.0375166
1826.26	0.0366248
1835.9	0.0355266
1845.54	0.034457
1855.18	0.0352553
1864.83	0.0343565
1874.47	0.0342658
1884.11	0.0344466
1893.75	0.0345241
1903.4	0.0346127
1913.04	0.0353574
1922.68	0.0357986
1932.32	0.0361109
1941.97	0.0356149
1951.61	0.0354394
1961.25	0.0385675
1970.89	0.0381698
1980.54	0.0393458
1990.18	0.0369159
1999.82	0.0394186
2009.46	0.0405447
2019.11	0.0395836
2028.75	0.0402395
2038.39	0.0396013
2048.03	0.0409794
2057.67	0.040904
2067.32	0.0405281
2076.96	0.041427
2086.6	0.0429505
2096.24	0.0422019
2105.89	0.042537
2115.53	0.0427627
2125.17	0.0422009
2134.81	0.0418723
2144.45	0.0415148
2154.1	0.0425885
2163.74	0.0438638
2173.38	0.0438185
2183.02	0.0442996
2192.67	0.0451391
2202.31	0.0457592
2211.95	0.04906
2221.59	0.049873
2231.24	0.0505138
2240.88	0.0526952
2250.52	0.054009
2260.16	0.055337
2269.8	0.0573444
2279.45	0.0587489
2289.09	0.0597843
2298.73	0.0615026
2308.38	0.0637719
2318.02	0.066184
2327.66	0.0682711
2337.3	0.0713252
2346.94	0.0741283
2356.59	0.0781559
2366.23	0.0818728
2375.87	0.0859464
2385.51	0.0909971
2395.16	0.0955545
2404.8	0.100617
2414.44	0.106759
2424.08	0.112255
2433.72	0.116326
2443.37	0.120953
2453.01	0.124143
2462.65	0.125563
2472.29	0.126071
2481.94	0.125858
2491.58	0.124937
2501.22	0.123033
2510.86	0.121548
2520.51	0.120165
2530.15	0.119185
2539.79	0.117692
2549.43	0.117758
2559.07	0.117554
2568.72	0.118663
2578.36	0.119074
2588	0.120631
2597.64	0.121806
2607.29	0.124287
2616.93	0.126356
2626.57	0.129153
2636.21	0.131944
2645.86	0.135698
2655.5	0.139325
2665.14	0.143327
2674.78	0.148509
2684.43	0.153434
2694.07	0.158442
2703.71	0.164363
2713.35	0.17018
2722.99	0.175938
2732.64	0.182264
2742.28	0.18822
2751.92	0.195224
2761.56	0.202409
2771.21	0.209431
2780.85	0.21598
2790.49	0.223011
2800.13	0.229295
2809.78	0.235534
2819.42	0.242063
2829.06	0.2476
2838.7	0.253006
2848.34	0.253702
2857.99	0.259113
2867.63	0.264317
2877.27	0.267409
2886.91	0.269049
2896.56	0.269869
2906.2	0.269753
2915.84	0.265397
2925.48	0.264892
2935.13	0.265135
2944.77	0.263578
2954.41	0.261259
2964.05	0.257374
2973.7	0.253014
2983.34	0.24838
2992.98	0.242632
3002.62	0.236688
3012.26	0.231436
3021.91	0.224935
3031.55	0.218883
3041.19	0.213464
3050.83	0.207806
3060.48	0.202124
3070.12	0.19715
3079.76	0.192247
3089.4	0.187962
3099.05	0.183493
3108.69	0.179305
3118.33	0.17591
3127.97	0.172008
3137.61	0.168827
3147.26	0.16675
3156.9	0.164414
3166.54	0.162158
3176.18	0.160799
3185.83	0.159916
3195.47	0.158096
3205.11	0.158025
3214.75	0.158323
3224.4	0.159499
3234.04	0.16246
3243.68	0.165302
3253.32	0.169337
3262.97	0.175481
3272.61	0.183246
3282.25	0.191929
3291.89	0.203361
3301.53	0.216018
3311.18	0.229376
3320.82	0.243745
3330.46	0.257024
3340.1	0.266379
3349.75	0.270963
3359.39	0.267606
3369.03	0.258002
3378.67	0.244613
3388.32	0.227721
3397.96	0.21232
3407.6	0.19601
3417.24	0.181488
3426.89	0.167957
3436.53	0.155109
3446.17	0.142522
3455.81	0.132151
3465.45	0.123693
3475.1	0.114266
3484.74	0.107829
3494.38	0.100419
3504.02	0.093702
3513.67	0.0878909
3523.31	0.0807945
3532.95	0.0747725
3542.59	0.0686487
3552.24	0.061702
3561.88	0.0554212
3571.52	0.0494061
3581.16	0.0430599
3590.8	0.0375974
3600.45	0.0321425
3610.09	0.0260608
3619.73	0.0234145
3629.37	0.0195714
3639.02	0.0218508
3648.66	0.0160118
3658.3	0.0190313
3667.94	0.0172803
3677.59	0.0161476
3687.23	0.0142431
3696.87	0.0181699
3706.51	0.0180572
3716.16	0.0176639
3725.8	0.0172697
3735.44	0.0141382
3745.08	0.01102
3754.72	0.0175658
3764.37	0.0182241
3774.01	0.0194904
3783.65	0.0185023
3793.29	0.0200189
3802.94	0.0161144
3812.58	0.0195663
3822.22	0.0160696
3831.86	0.0183495
3841.51	0.0184631
3851.15	0.014585
3860.79	0.0192372
3870.43	0.0170765
3880.07	0.0191204
3889.72	0.0184094
3899.36	0.0180405
3909	0.0205682
3918.64	0.019623
3928.29	0.0206614
3937.93	0.0198261
3947.57	0.0206082
3957.21	0.0219994
3966.86	0.0214232
3976.5	0.0222496
3986.14	0.0213454
3995.78	0.0220105
