Measurement: Infrared, Infrared Data Processed
Mineral: Anglesite
Rruff sample: R050052
Ideal chemistry: Pb^2+^S^6+^O_4_
Locality: Touissite, Oujela, Morocco
Source: Eugene Schlepp
Description: Yellow prismatic single crystal
Measured chemistry: Pb_1.00_S_1.00_O_4_
x	intensity
399.193	0
408.835	0.0183526
418.477	0.0251735
428.12	0.0285532
437.762	0.0383097
447.404	0.0363424
457.047	0.0477432
466.689	0.0571356
476.331	0.0589535
485.974	0.0679631
495.616	0.0710804
505.258	0.0822254
514.901	0.0996878
524.543	0.119371
534.185	0.148922
543.828	0.184482
553.47	0.224405
563.112	0.27707
572.755	0.341973
582.397	0.411268
592.039	0.409123
601.682	0.255019
611.324	0.152568
620.966	0.191997
630.609	0.19615
640.251	0.0763624
649.893	0.0265469
659.536	0.0205881
669.178	0.0216604
678.82	0.0191661
688.463	0.0201292
698.105	0.0226048
707.747	0.0251017
717.39	0.0285186
727.032	0.0324539
736.674	0.036714
746.317	0.041198
755.959	0.0454222
765.601	0.0514777
775.244	0.0573346
784.886	0.0639914
794.528	0.0713811
804.171	0.0795927
813.813	0.0898016
823.455	0.100765
833.098	0.113922
842.74	0.128768
852.382	0.146684
862.025	0.164881
871.667	0.188808
881.309	0.214467
890.952	0.242058
900.594	0.27053
910.236	0.299916
919.879	0.332601
929.521	0.365184
939.163	0.400815
948.806	0.449151
958.448	0.502082
968.09	0.470644
977.733	0.471715
987.375	0.545184
997.017	0.58175
1006.66	0.593808
1016.3	0.608839
1025.94	0.610624
1035.59	0.586644
1045.23	0.549241
1054.87	0.494685
1064.51	0.43646
1074.16	0.385046
1083.8	0.344237
1093.44	0.310599
1103.08	0.281945
1112.72	0.257604
1122.37	0.233707
1132.01	0.207455
1141.65	0.190925
1151.3	0.197103
1160.94	0.210827
1170.58	0.205036
1180.22	0.180383
1189.86	0.148543
1199.51	0.117601
1209.15	0.091275
1218.79	0.0592597
1228.43	0.03566
1238.08	0.0230782
1247.72	0.0161974
1257.36	0.0117658
1267	0.00861592
1276.64	0.00720416
1286.29	0.00601728
1295.93	0.00567064
1305.57	0.00535311
1315.21	0.00552163
1324.86	0.00519368
1334.5	0.00526312
1344.14	0.00562056
1353.78	0.00538408
1363.43	0.00563647
1373.07	0.00619487
1382.71	0.00696048
1392.35	0.00725216
1401.99	0.00735483
1411.64	0.00759561
1421.28	0.00767777
1430.92	0.00780591
1440.57	0.00821154
1450.21	0.00872274
1459.85	0.00893038
1469.49	0.00951803
1479.13	0.0100763
1488.78	0.010118
1498.42	0.0100742
1508.06	0.0100202
1517.7	0.0105035
1527.35	0.0112607
1536.99	0.0113183
1546.63	0.0121952
1556.27	0.0126552
1565.91	0.0134466
1575.56	0.0122334
1585.2	0.0132901
1594.84	0.0131909
1604.48	0.0135838
1614.13	0.0135516
1623.77	0.0139288
1633.41	0.0137454
1643.05	0.0144362
1652.7	0.0130805
1662.34	0.0149955
1671.98	0.0149861
1681.62	0.0145562
1691.27	0.0157576
1700.91	0.0149784
1710.55	0.0157418
1720.19	0.0157403
1729.84	0.015307
1739.48	0.0147133
1749.12	0.0151858
1758.76	0.0161116
1768.4	0.016539
1778.05	0.0171496
1787.69	0.0173296
1797.33	0.0175048
1806.97	0.0174477
1816.62	0.0172987
1826.26	0.0177976
1835.9	0.0180275
1845.54	0.0183443
1855.18	0.0191846
1864.83	0.0183794
1874.47	0.0189873
1884.11	0.0183987
1893.75	0.0192358
1903.4	0.018803
1913.04	0.0199451
1922.68	0.0214153
1932.32	0.019301
1941.97	0.0196346
1951.61	0.0190223
1961.25	0.018898
1970.89	0.0159467
1980.54	0.0209909
1990.18	0.0201223
1999.82	0.0200108
2009.46	0.020096
2019.11	0.0187112
2028.75	0.0206672
2038.39	0.0184639
2048.03	0.0221019
2057.67	0.0234303
2067.32	0.0214991
2076.96	0.0259155
2086.6	0.0252722
2096.24	0.0238457
2105.89	0.0259214
2115.53	0.0250744
2125.17	0.025407
2134.81	0.0238504
2144.45	0.0240144
2154.1	0.0159791
2163.74	0.0246987
2173.38	0.0208391
2183.02	0.0218597
2192.67	0.0261358
2202.31	0.0252507
2211.95	0.0257859
2221.59	0.0281652
2231.24	0.0273141
2240.88	0.028457
2250.52	0.0294636
2260.16	0.0304527
2269.8	0.031436
2279.45	0.03241
2289.09	0.0332662
2298.73	0.0335652
2308.38	0.0339091
2318.02	0.0353882
2327.66	0.0359353
2337.3	0.0348388
2346.94	0.0358495
2356.59	0.0347968
2366.23	0.0343946
2375.87	0.0350855
2385.51	0.0349069
2395.16	0.0361101
2404.8	0.0363159
2414.44	0.0362927
2424.08	0.0368264
2433.72	0.0381018
2443.37	0.0391052
2453.01	0.0402568
2462.65	0.0401676
2472.29	0.0406706
2481.94	0.0413681
2491.58	0.0413685
2501.22	0.0428529
2510.86	0.0425108
2520.51	0.0420159
2530.15	0.043464
2539.79	0.0444906
2549.43	0.0445433
2559.07	0.0443916
2568.72	0.0450156
2578.36	0.0444435
2588	0.0454842
2597.64	0.0453748
2607.29	0.0459744
2616.93	0.0467301
2626.57	0.046212
2636.21	0.0463847
2645.86	0.0479294
2655.5	0.0468783
2665.14	0.0471078
2674.78	0.047464
2684.43	0.047148
2694.07	0.0472077
2703.71	0.0477812
2713.35	0.0479224
2722.99	0.0484412
2732.64	0.0486105
2742.28	0.0480978
2751.92	0.0488262
2761.56	0.0501388
2771.21	0.0496675
2780.85	0.0514611
2790.49	0.0499419
2800.13	0.051149
2809.78	0.0514298
2819.42	0.0515914
2829.06	0.0515019
2838.7	0.0514617
2848.34	0.0518003
2857.99	0.0521547
2867.63	0.0541029
2877.27	0.0555022
2886.91	0.0548133
2896.56	0.0551927
2906.2	0.0544959
2915.84	0.0538181
2925.48	0.0548249
2935.13	0.0548629
2944.77	0.0572389
2954.41	0.0559292
2964.05	0.0566436
2973.7	0.0570335
2983.34	0.0594509
2992.98	0.0576134
3002.62	0.0580959
3012.26	0.0577645
3021.91	0.0576694
3031.55	0.0589702
3041.19	0.0583994
3050.83	0.0591526
3060.48	0.0603364
3070.12	0.0610104
3079.76	0.0611055
3089.4	0.0596411
3099.05	0.0614266
3108.69	0.0603135
3118.33	0.0627081
3127.97	0.0609237
3137.61	0.0641182
3147.26	0.0631868
3156.9	0.0639379
3166.54	0.0658205
3176.18	0.0622591
3185.83	0.0646237
3195.47	0.0660663
3205.11	0.0631346
3214.75	0.0650866
3224.4	0.0656357
3234.04	0.0660795
3243.68	0.0647855
3253.32	0.0672595
3262.97	0.0672421
3272.61	0.0671424
3282.25	0.0690825
3291.89	0.0673972
3301.53	0.0699769
3311.18	0.0689491
3320.82	0.0697913
3330.46	0.0685381
3340.1	0.0696342
3349.75	0.0697237
3359.39	0.0716685
3369.03	0.0705911
3378.67	0.070419
3388.32	0.0737897
3397.96	0.0713896
3407.6	0.0717643
3417.24	0.0722576
3426.89	0.0731731
3436.53	0.0757288
3446.17	0.0725165
3455.81	0.0741181
3465.45	0.0754711
3475.1	0.0768683
3484.74	0.076661
3494.38	0.0747208
3504.02	0.0748485
3513.67	0.0767766
3523.31	0.0751847
3532.95	0.0757001
3542.59	0.0760412
3552.24	0.0741703
3561.88	0.0767424
3571.52	0.078316
3581.16	0.0762105
3590.8	0.0775127
3600.45	0.0798007
3610.09	0.0794107
3619.73	0.0775856
3629.37	0.0780625
3639.02	0.0733543
3648.66	0.0804036
3658.3	0.0814842
3667.94	0.0773457
3677.59	0.080798
3687.23	0.07902
3696.87	0.0799505
3706.51	0.0767735
3716.16	0.0852012
3725.8	0.0816553
3735.44	0.0816073
3745.08	0.0882928
3754.72	0.0853316
3764.37	0.0830882
3774.01	0.0833484
3783.65	0.090258
3793.29	0.0877793
3802.94	0.0902407
3812.58	0.0860091
3822.22	0.0877646
3831.86	0.0859874
3841.51	0.0916681
3851.15	0.0837466
3860.79	0.0858432
3870.43	0.0867343
3880.07	0.091579
3889.72	0.0913119
3899.36	0.0872759
3909	0.0872933
3918.64	0.0894319
3928.29	0.090582
3937.93	0.0941511
3947.57	0.0883911
3957.21	0.0968049
3966.86	0.0949276
3976.5	0.0941247
3986.14	0.090695
3995.78	0.0957315
