Measurement: Infrared, Infrared Data Processed
Mineral: Anorthite
Rruff sample: R050104
Ideal chemistry: CaAl_2_Si_2_O_8_
Locality: unknown
Source: Rock Currier
Description: Iridescent slab, labradorite/andesine
Measured chemistry: Ca_0.50_Na_0.47_K_0.03_Al_1.50_Si_2.50_O_8_
x	intensity
50.1401	0.0210838
52.0686	0.0145827
53.9971	0.0158586
55.9255	0.0215825
57.854	0.0259803
59.7825	0.0291644
61.7109	0.0265975
63.6394	0.0277774
65.5679	0.0248965
67.4963	0.0265869
69.4248	0.029965
71.3533	0.0312826
73.2817	0.0295781
75.2102	0.0275475
77.1387	0.0265882
79.0671	0.0284227
80.9956	0.0298153
82.9241	0.0306189
84.8525	0.030429
86.781	0.0303445
88.7095	0.030065
90.6379	0.0293667
92.5664	0.0292256
94.4948	0.0295142
96.4233	0.029186
98.3518	0.0301758
100.28	0.0313756
102.209	0.032364
104.137	0.0333703
106.066	0.0344954
107.994	0.0347755
109.923	0.0350313
111.851	0.0354206
113.779	0.0354539
115.708	0.0350373
117.636	0.0351801
119.565	0.0362225
121.493	0.0373403
123.422	0.0377686
125.35	0.0386433
127.279	0.0388859
129.207	0.0390831
131.136	0.0389489
133.064	0.0391566
134.993	0.0393461
136.921	0.0395616
138.85	0.0402107
140.778	0.0407872
142.707	0.0410597
144.635	0.0413929
146.563	0.0415749
148.492	0.0422352
150.42	0.0423095
152.349	0.0420986
154.277	0.0421637
156.206	0.0428987
158.134	0.0433157
160.063	0.0438489
161.991	0.0438903
163.92	0.0432171
165.848	0.0428417
167.777	0.0430675
169.705	0.0435868
171.633	0.0434257
173.562	0.0433309
175.49	0.0435311
177.419	0.0439706
179.347	0.0438091
181.276	0.0437047
183.204	0.0442398
185.133	0.0449684
187.061	0.0455129
188.99	0.0461874
190.918	0.0465183
192.847	0.0469994
194.775	0.0478778
196.704	0.0485921
198.632	0.04914
200.56	0.0496245
202.489	0.0506652
204.417	0.0512454
206.346	0.051046
208.274	0.0510829
210.203	0.0509197
212.131	0.0502646
214.06	0.0494571
215.988	0.0486927
217.917	0.048107
219.845	0.0479573
221.774	0.0476931
223.702	0.0469425
225.631	0.046692
227.559	0.0468756
229.488	0.0460335
231.416	0.0451896
233.344	0.0444925
235.273	0.0437201
237.201	0.0430453
239.13	0.0422553
241.058	0.0413536
242.987	0.040389
244.915	0.0397125
246.844	0.0395419
248.772	0.0393906
250.701	0.0389863
252.629	0.0390373
254.558	0.0390319
256.486	0.0387424
258.414	0.0391727
260.343	0.0401402
262.271	0.0410853
264.2	0.0420952
266.128	0.0430786
268.057	0.044081
269.985	0.0451857
271.914	0.046075
273.842	0.0465446
275.771	0.047607
277.699	0.048908
279.628	0.0497674
281.556	0.0506102
283.485	0.0516167
285.413	0.0525036
287.341	0.0533654
289.27	0.0547723
291.198	0.056323
293.127	0.0576089
295.055	0.0586786
296.984	0.0599081
298.912	0.0614064
300.841	0.0630969
302.769	0.0645459
304.698	0.0658495
306.626	0.0671103
308.555	0.0679526
310.483	0.0684897
312.411	0.0689172
314.34	0.0691912
316.269	0.0693585
318.197	0.069583
320.125	0.0699215
322.054	0.0701189
323.982	0.0698383
325.911	0.0699205
327.839	0.0703542
329.768	0.0709071
331.696	0.0712734
333.625	0.0718147
335.553	0.0724941
337.482	0.0735795
339.41	0.0745528
341.339	0.0748738
343.267	0.0753314
345.195	0.0764524
347.124	0.0772723
349.052	0.0778087
350.981	0.078729
352.909	0.0795946
354.838	0.0804528
356.766	0.081214
358.695	0.0816633
360.623	0.082054
362.552	0.0824721
364.48	0.0827637
366.409	0.0829193
368.337	0.0825874
370.265	0.0821992
372.194	0.0818318
374.122	0.0815344
376.051	0.0813788
377.979	0.0813744
379.908	0.0813861
381.836	0.0815395
383.765	0.0817132
385.693	0.0814003
387.622	0.0807807
389.55	0.0801211
391.479	0.0796097
393.407	0.0788421
395.336	0.0779144
397.264	0.0770459
399.192	0.0761079
401.121	0.074889
403.049	0.0737864
404.978	0.0729865
406.906	0.0721787
408.835	0.0712636
410.763	0.0703874
412.692	0.0695244
414.62	0.0688368
416.549	0.0682238
418.477	0.0676676
420.406	0.0671149
422.334	0.0667204
424.262	0.0660703
426.191	0.0651036
428.12	0.064173
430.048	0.063075
431.976	0.0620899
433.905	0.0608944
435.833	0.0593633
437.762	0.0576509
439.69	0.0560229
441.619	0.0545392
443.547	0.0532453
445.476	0.0521432
447.404	0.0512552
449.333	0.0505268
451.261	0.0503
453.19	0.0507754
455.118	0.0515716
457.046	0.052763
458.975	0.0542786
460.903	0.0557241
462.832	0.0570256
464.76	0.0578357
466.689	0.0579768
468.617	0.057602
470.546	0.056613
472.474	0.0557618
474.403	0.0548509
476.331	0.0534918
478.26	0.052473
480.188	0.051775
482.116	0.0508347
484.045	0.0496198
485.974	0.048163
487.902	0.0472237
489.83	0.047077
491.759	0.0469383
493.687	0.047218
495.616	0.0480633
497.544	0.0493343
499.473	0.0507216
501.401	0.052285
503.33	0.0542218
505.258	0.0562529
507.187	0.0576096
509.115	0.0586453
511.043	0.0600318
512.972	0.0612206
514.9	0.0623232
516.829	0.0639257
518.757	0.0659636
520.686	0.0677382
522.614	0.0692216
524.543	0.0708128
526.471	0.0725484
528.4	0.0747209
530.328	0.0769519
532.257	0.079045
534.185	0.0810185
536.114	0.0824485
538.042	0.083374
539.971	0.0831541
541.899	0.0819627
543.827	0.0806884
545.756	0.0783916
547.684	0.0760479
549.613	0.0751992
551.541	0.0753458
553.47	0.0756649
555.398	0.0760473
557.327	0.0766007
559.255	0.0775961
561.184	0.0789131
563.112	0.0803052
565.041	0.08194
566.969	0.0835902
568.898	0.0848947
570.826	0.0863936
572.755	0.0875425
574.683	0.0879669
576.611	0.0879941
578.54	0.0874672
580.468	0.0866544
582.397	0.0855933
584.325	0.0838951
586.254	0.0821953
588.182	0.080621
590.111	0.0791816
592.039	0.0779765
593.968	0.0767859
595.896	0.0754493
597.824	0.0744521
599.753	0.0733957
601.682	0.0725226
603.61	0.0718799
605.538	0.071396
607.467	0.0708596
609.395	0.0697065
611.324	0.0686879
613.252	0.068519
615.181	0.0678548
617.109	0.0676547
619.038	0.0683589
620.966	0.0688156
622.894	0.0696496
624.823	0.069889
626.751	0.069846
628.68	0.0703669
630.608	0.0704586
632.537	0.0693385
634.465	0.0678789
636.394	0.0664577
638.322	0.0645953
640.251	0.0624341
642.179	0.0601015
644.108	0.0580377
646.036	0.056494
647.965	0.0550151
649.893	0.0534372
651.822	0.0523609
653.75	0.0518269
655.678	0.0515939
657.607	0.0516793
659.535	0.0517299
661.464	0.0512145
663.392	0.0508707
665.321	0.0510391
667.249	0.05148
669.178	0.0516414
671.106	0.0518428
673.035	0.0519565
674.963	0.0520063
676.892	0.0523494
678.82	0.0527356
680.749	0.0529064
682.677	0.0526785
684.606	0.052366
686.534	0.0527015
688.462	0.0535238
690.391	0.0539154
692.319	0.0540027
694.248	0.0543988
696.176	0.0550935
698.105	0.0555959
700.033	0.0542605
