Measurement: Infrared, Infrared Data Processed
Mineral: Aphthitalite
Rruff sample: R050651
Ideal chemistry: K_3_Na(S^6+^O_4_)_2_
Locality: Searles Lake, Trona, San Bernardino County, California, USA
Source: University of Arizona Mineral Museum
Description: Colorless hexagonal crystals displaying P-3m1 space group symmetry, associated with halite.
x	intensity
399.193	-0.0162391
408.835	0.0123635
418.477	-0.0012038
428.12	0.00117447
437.762	0.00674223
447.404	0.00722821
457.047	0.00611369
466.689	0.00573657
476.331	0.00221103
485.974	0.00347429
495.616	0.00293548
505.258	0.00273042
514.901	0.00390234
524.543	0.00453437
534.185	0.00422095
543.828	0.00481118
553.47	0.00649474
563.112	0.00738388
572.755	0.00736143
582.397	0.0117906
592.039	0.0167884
601.682	0.0328398
611.324	0.0782976
620.966	0.0944254
630.609	0.0118276
640.251	0.00545417
649.893	0.00417812
659.536	0.00434872
669.178	0.00460661
678.82	0.00476366
688.463	0.00474178
698.105	0.00484761
707.747	0.00556467
717.39	0.00506029
727.032	0.00583212
736.674	0.00617724
746.317	0.0058255
755.959	0.00632417
765.601	0.00755857
775.244	0.0129723
784.886	0.00699246
794.528	0.00640865
804.171	0.00689228
813.813	0.00724719
823.455	0.00762423
833.098	0.00838481
842.74	0.00824145
852.382	0.00857118
862.025	0.00866429
871.667	0.00913719
881.309	0.00949631
890.952	0.0100381
900.594	0.0105824
910.236	0.0111959
919.879	0.0117094
929.521	0.0128831
939.163	0.0138569
948.806	0.0155844
958.448	0.0168763
968.09	0.0189947
977.733	0.0233872
987.375	0.039556
997.017	0.0283049
1006.66	0.0286136
1016.3	0.0327165
1025.94	0.0383641
1035.59	0.0458862
1045.23	0.0552535
1054.87	0.0662822
1064.51	0.0823145
1074.16	0.102551
1083.8	0.128102
1093.44	0.161711
1103.08	0.166905
1112.72	0.144992
1122.37	0.121442
1132.01	0.098987
1141.65	0.0793344
1151.3	0.064438
1160.94	0.0527387
1170.58	0.0582379
1180.22	0.0693173
1189.86	0.0713141
1199.51	0.0607406
1209.15	0.0431811
1218.79	0.0276359
1228.43	0.0172133
1238.08	0.0131734
1247.72	0.0107969
1257.36	0.00998185
1267	0.00880432
1276.64	0.00855652
1286.29	0.00784321
1295.93	0.00773524
1305.57	0.0069553
1315.21	0.00810038
1324.86	0.00902059
1334.5	0.0105728
1344.14	0.0134348
1353.78	0.0198194
1363.43	0.020123
1373.07	0.011576
1382.71	0.00794006
1392.35	0.00771463
1401.99	0.00700735
1411.64	0.00799172
1421.28	0.00806291
1430.92	0.00833424
1440.57	0.00861989
1450.21	0.0083853
1459.85	0.00852547
1469.49	0.00888718
1479.13	0.0085026
1488.78	0.00881691
1498.42	0.00901792
1508.06	0.0092565
1517.7	0.0101087
1527.35	0.0106435
1536.99	0.0120796
1546.63	0.013388
1556.27	0.0150389
1565.91	0.0177905
1575.56	0.0196152
1585.2	0.0218523
1594.84	0.0209965
1604.48	0.0198398
1614.13	0.0181411
1623.77	0.0163019
1633.41	0.0144934
1643.05	0.0128837
1652.7	0.0113783
1662.34	0.0101641
1671.98	0.00919024
1681.62	0.00802748
1691.27	0.00822497
1700.91	0.00793141
1710.55	0.00742174
1720.19	0.00757734
1729.84	0.00811618
1739.48	0.00718198
1749.12	0.00728352
1758.76	0.00704354
1768.4	0.00717998
1778.05	0.00622738
1787.69	0.0071338
1797.33	0.00675024
1806.97	0.00673143
1816.62	0.00595104
1826.26	0.00623588
1835.9	0.00706784
1845.54	0.00672852
1855.18	0.00622859
1864.83	0.0063482
1874.47	0.00674449
1884.11	0.00751676
1893.75	0.00618016
1903.4	0.00537811
1913.04	0.00427978
1922.68	0.00593534
1932.32	0.00658823
1941.97	0.00418068
1951.61	0.0031795
1961.25	0.00424584
1970.89	0.00246189
1980.54	0.00566892
1990.18	0.00578541
1999.82	0.00283813
2009.46	0.00415919
2019.11	0.00593214
2028.75	0.00402777
2038.39	0.00582806
2048.03	0.0037171
2057.67	0.00724873
2067.32	0.00782399
2076.96	0.00687116
2086.6	0.00503445
2096.24	0.00374587
2105.89	0.00495574
2115.53	0.00385283
2125.17	0.00378738
2134.81	0.00314561
2144.45	0.00477072
2154.1	-0.00396
2163.74	0.00388038
2173.38	0.00123843
2183.02	0.00545404
2192.67	0.00576271
2202.31	0.00352173
2211.95	0.00364014
2221.59	0.00274914
2231.24	0.00570366
2240.88	0.00517973
2250.52	0.00527572
2260.16	0.00883558
2269.8	0.00778883
2279.45	0.00890449
2289.09	0.00762018
2298.73	0.00920465
2308.38	0.0086441
2318.02	0.0106167
2327.66	0.00912855
2337.3	0.00893789
2346.94	0.00846048
2356.59	0.00859461
2366.23	0.00759061
2375.87	0.00702383
2385.51	0.00620681
2395.16	0.00733385
2404.8	0.00749177
2414.44	0.00691782
2424.08	0.00905754
2433.72	0.00984375
2443.37	0.00852118
2453.01	0.00860241
2462.65	0.00828076
2472.29	0.00945146
2481.94	0.00943191
2491.58	0.00869489
2501.22	0.0083291
2510.86	0.0103634
2520.51	0.0112993
2530.15	0.00980796
2539.79	0.00925089
2549.43	0.00919853
2559.07	0.0103984
2568.72	0.00954337
2578.36	0.00895544
2588	0.0104302
2597.64	0.00994412
2607.29	0.00926895
2616.93	0.0105834
2626.57	0.0100824
2636.21	0.0113622
2645.86	0.0105317
2655.5	0.0102468
2665.14	0.0101476
2674.78	0.00882857
2684.43	0.0101279
2694.07	0.00944741
2703.71	0.0113728
2713.35	0.0118466
2722.99	0.0112735
2732.64	0.0112898
2742.28	0.00970753
2751.92	0.01219
2761.56	0.0115251
2771.21	0.0123426
2780.85	0.0115887
2790.49	0.0114715
2800.13	0.0124309
2809.78	0.0112558
2819.42	0.0138694
2829.06	0.0185108
2838.7	0.0167031
2848.34	0.0149738
2857.99	0.0131012
2867.63	0.0123252
2877.27	0.0140974
2886.91	0.0122476
2896.56	0.0134587
2906.2	0.0138487
2915.84	0.0171474
2925.48	0.0179385
2935.13	0.0163208
2944.77	0.0154927
2954.41	0.0141823
2964.05	0.0161704
2973.7	0.0140284
2983.34	0.0137906
2992.98	0.013819
3002.62	0.0131717
3012.26	0.0118414
3021.91	0.0124366
3031.55	0.0127233
3041.19	0.0129254
3050.83	0.0139754
3060.48	0.0125408
3070.12	0.0127653
3079.76	0.0142558
3089.4	0.011796
3099.05	0.0138015
3108.69	0.012239
3118.33	0.0133486
3127.97	0.0133927
3137.61	0.0135771
3147.26	0.0126092
3156.9	0.0122615
3166.54	0.0135632
3176.18	0.014815
3185.83	0.013767
3195.47	0.0149017
3205.11	0.01427
3214.75	0.0131639
3224.4	0.0137371
3234.04	0.0131282
3243.68	0.0130756
3253.32	0.0126856
3262.97	0.012356
3272.61	0.0158125
3282.25	0.0143511
3291.89	0.0139436
3301.53	0.013683
3311.18	0.015275
3320.82	0.0144794
3330.46	0.0153872
3340.1	0.0158476
3349.75	0.0167793
3359.39	0.0127679
3369.03	0.0145213
3378.67	0.0122295
3388.32	0.0127436
3397.96	0.0146163
3407.6	0.0149524
3417.24	0.0134047
3426.89	0.0129345
3436.53	0.011217
3446.17	0.0127103
3455.81	0.0162411
3465.45	0.0127865
3475.1	0.0145075
3484.74	0.0105647
3494.38	0.0147338
3504.02	0.0115282
3513.67	0.0132209
3523.31	0.01404
3532.95	0.0129785
3542.59	0.0108559
3552.24	0.0130921
3561.88	0.0118623
3571.52	0.0121427
3581.16	0.0095251
3590.8	0.00896584
3600.45	0.0120403
3610.09	0.0110032
3619.73	0.0163391
3629.37	0.0111015
3639.02	0.0109207
3648.66	0.0061438
3658.3	0.00894578
3667.94	0.00728154
3677.59	0.0112041
3687.23	0.0070145
3696.87	0.0143931
3706.51	0.0106185
3716.16	0.00742982
3725.8	0.0122615
3735.44	0.0107654
3745.08	0.00922289
3754.72	0.00903782
3764.37	0.00945265
3774.01	0.010277
3783.65	0.010278
3793.29	0.0112191
3802.94	0.0117301
3812.58	0.00637505
3822.22	0.00939935
3831.86	0.00890525
3841.51	0.00791203
3851.15	0.0123278
3860.79	0.00855146
3870.43	0.0098961
3880.07	0.0115793
3889.72	0.0109048
3899.36	0.00415013
3909	0.0108968
3918.64	0.0103148
3928.29	0.00708564
3937.93	0.00809594
3947.57	0.00904871
3957.21	0.00671707
3966.86	0.0088247
3976.5	0.00709957
3986.14	0.00952035
3995.78	0.00955097
