Measurement: Infrared, Infrared Data Processed
Mineral: Augelite
Rruff sample: R050060
Ideal chemistry: Al_2_PO_4_(OH)_3_
Locality: Machacamarca, Potosi Department, Bolivia
Source: Rock Currier
Description: Colorless prismatic crystals
Measured chemistry: Al_2.00_(P_1.00_O_4_)(OH)_3_; OH estimated by difference
x	intensity
399.193	0.235655
408.835	0.186095
418.477	0.181131
428.12	0.199852
437.762	0.176252
447.404	0.132766
457.047	0.103869
466.689	0.0861594
476.331	0.0867072
485.974	0.0963413
495.616	0.106456
505.258	0.121752
514.901	0.148718
524.543	0.185358
534.185	0.221903
543.828	0.23625
553.47	0.226317
563.112	0.193495
572.755	0.167496
582.397	0.150398
592.039	0.148384
601.682	0.165854
611.324	0.1714
620.966	0.160725
630.609	0.172175
640.251	0.161578
649.893	0.141528
659.536	0.1166
669.178	0.0904727
678.82	0.0735808
688.463	0.0745665
698.105	0.0978338
707.747	0.146101
717.39	0.153253
727.032	0.10018
736.674	0.0539037
746.317	0.0391319
755.959	0.0370916
765.601	0.0408851
775.244	0.0494505
784.886	0.0594653
794.528	0.0709086
804.171	0.0857577
813.813	0.10514
823.455	0.125969
833.098	0.133022
842.74	0.118156
852.382	0.0937924
862.025	0.0774744
871.667	0.0752889
881.309	0.0854495
890.952	0.106583
900.594	0.135692
910.236	0.169809
919.879	0.192176
929.521	0.183395
939.163	0.149172
948.806	0.117872
958.448	0.111735
968.09	0.127955
977.733	0.162871
987.375	0.215197
997.017	0.272085
1006.66	0.290882
1016.3	0.271868
1025.94	0.224847
1035.59	0.175313
1045.23	0.142292
1054.87	0.144367
1064.51	0.17795
1074.16	0.184005
1083.8	0.166
1093.44	0.144595
1103.08	0.142606
1112.72	0.13406
1122.37	0.135511
1132.01	0.15871
1141.65	0.190223
1151.3	0.19011
1160.94	0.171071
1170.58	0.150805
1180.22	0.135323
1189.86	0.124784
1199.51	0.112561
1209.15	0.0954833
1218.79	0.0746407
1228.43	0.0508705
1238.08	0.0284931
1247.72	0.0148609
1257.36	0.00979313
1267	0.00727077
1276.64	0.00591163
1286.29	0.00492875
1295.93	0.00440545
1305.57	0.00381473
1315.21	0.00327581
1324.86	0.00304691
1334.5	0.00275771
1344.14	0.0026675
1353.78	0.00239178
1363.43	0.00205341
1373.07	0.00192807
1382.71	0.00179488
1392.35	0.00169995
1401.99	0.00170956
1411.64	0.00163784
1421.28	0.001697
1430.92	0.0017592
1440.57	0.00175658
1450.21	0.00174187
1459.85	0.00184037
1469.49	0.00180429
1479.13	0.00218204
1488.78	0.00240811
1498.42	0.00253223
1508.06	0.00302767
1517.7	0.00285575
1527.35	0.00291725
1536.99	0.00316109
1546.63	0.00293075
1556.27	0.00322722
1565.91	0.00291114
1575.56	0.00344734
1585.2	0.00304216
1594.84	0.003205
1604.48	0.00345168
1614.13	0.00340458
1623.77	0.00384352
1633.41	0.00369467
1643.05	0.00354623
1652.7	0.00461474
1662.34	0.0037504
1671.98	0.00333772
1681.62	0.00340121
1691.27	0.00312749
1700.91	0.00370016
1710.55	0.00262139
1720.19	0.00269697
1729.84	0.00233345
1739.48	0.00174496
1749.12	0.00174331
1758.76	0.00242388
1768.4	0.00330533
1778.05	0.00372363
1787.69	0.00389249
1797.33	0.00364832
1806.97	0.00274695
1816.62	0.00188813
1826.26	0.00216126
1835.9	0.00158695
1845.54	0.00164107
1855.18	0.00137209
1864.83	0.00106527
1874.47	0.0015732
1884.11	0.00158894
1893.75	0.00240796
1903.4	0.00282594
1913.04	0.00340756
1922.68	0.00323913
1932.32	0.00316479
1941.97	0.00240902
1951.61	0.00174027
1961.25	0.00180076
1970.89	0.00276086
1980.54	0.00441632
1990.18	0.00330195
1999.82	0.00509733
2009.46	0.00368081
2019.11	0.00443651
2028.75	0.00490924
2038.39	0.00261919
2048.03	0.00309753
2057.67	0.00252065
2067.32	0.00273108
2076.96	0.00266441
2086.6	0.0024207
2096.24	0.00266373
2105.89	0.00363417
2115.53	0.00353593
2125.17	0.00157705
2134.81	0.000394189
2144.45	-0.000485015
2154.1	0.000374507
2163.74	0.00450946
2173.38	0.00245943
2183.02	0.00392916
2192.67	0.00373435
2202.31	0.00508314
2211.95	0.00468642
2221.59	0.00410152
2231.24	0.00382166
2240.88	0.00453248
2250.52	0.00347123
2260.16	0.00330382
2269.8	0.00355878
2279.45	0.00363413
2289.09	0.0035147
2298.73	0.00270881
2308.38	0.00303677
2318.02	0.00339854
2327.66	0.00339239
2337.3	0.00346339
2346.94	0.00308889
2356.59	0.00304742
2366.23	0.00273667
2375.87	0.00222969
2385.51	0.00183964
2395.16	0.00199296
2404.8	0.00157672
2414.44	0.00255109
2424.08	0.00240447
2433.72	0.0026038
2443.37	0.00299935
2453.01	0.00396724
2462.65	0.00428656
2472.29	0.0041238
2481.94	0.00452455
2491.58	0.00485612
2501.22	0.00526907
2510.86	0.00515355
2520.51	0.00519761
2530.15	0.00554064
2539.79	0.00583093
2549.43	0.00575407
2559.07	0.00629076
2568.72	0.00628556
2578.36	0.00643307
2588	0.00670314
2597.64	0.00651006
2607.29	0.00733824
2616.93	0.00673909
2626.57	0.00671983
2636.21	0.00705429
2645.86	0.00700524
2655.5	0.00677439
2665.14	0.00658234
2674.78	0.00628485
2684.43	0.00598656
2694.07	0.00649631
2703.71	0.00625229
2713.35	0.00651381
2722.99	0.00640149
2732.64	0.0067823
2742.28	0.00697775
2751.92	0.00690981
2761.56	0.00713915
2771.21	0.0074411
2780.85	0.00745695
2790.49	0.00750987
2800.13	0.00765231
2809.78	0.00770703
2819.42	0.00792123
2829.06	0.00817154
2838.7	0.00779469
2848.34	0.00616253
2857.99	0.00638192
2867.63	0.00734279
2877.27	0.00813143
2886.91	0.00769789
2896.56	0.00774399
2906.2	0.00747905
2915.84	0.00527467
2925.48	0.00482277
2935.13	0.00658071
2944.77	0.00783024
2954.41	0.00838528
2964.05	0.00898197
2973.7	0.00910836
2983.34	0.00952391
2992.98	0.00963944
3002.62	0.00997264
3012.26	0.0110743
3021.91	0.0107931
3031.55	0.0113676
3041.19	0.0114288
3050.83	0.0115835
3060.48	0.0121816
3070.12	0.0119739
3079.76	0.0129552
3089.4	0.01303
3099.05	0.0134033
3108.69	0.0133992
3118.33	0.0141863
3127.97	0.0143886
3137.61	0.0152575
3147.26	0.0155666
3156.9	0.0169337
3166.54	0.0168755
3176.18	0.0173709
3185.83	0.0180624
3195.47	0.0187214
3205.11	0.0202667
3214.75	0.0200408
3224.4	0.0202118
3234.04	0.0216782
3243.68	0.0221868
3253.32	0.0241986
3262.97	0.0247221
3272.61	0.0268722
3282.25	0.0280633
3291.89	0.0291799
3301.53	0.030254
3311.18	0.0326815
3320.82	0.0344981
3330.46	0.0371102
3340.1	0.0393001
3349.75	0.0414927
3359.39	0.0446332
3369.03	0.0483676
3378.67	0.0525164
3388.32	0.0575233
3397.96	0.0644457
3407.6	0.0718568
3417.24	0.0802755
3426.89	0.0894107
3436.53	0.100024
3446.17	0.113345
3455.81	0.134562
3465.45	0.156008
3475.1	0.140791
3484.74	0.11198
3494.38	0.0953624
3504.02	0.0886792
3513.67	0.0903269
3523.31	0.0999126
3532.95	0.114341
3542.59	0.124731
3552.24	0.113672
3561.88	0.0784035
3571.52	0.0442346
3581.16	0.0275181
3590.8	0.0205725
3600.45	0.0202994
3610.09	0.0172689
3619.73	0.00835933
3629.37	0.00630251
3639.02	0.00320914
3648.66	0.00315515
3658.3	0.00112912
3667.94	0.000689484
3677.59	-0.000210994
3687.23	-0.000165354
3696.87	-0.000759794
3706.51	-0.000875542
3716.16	0.0001086
3725.8	-0.000851909
3735.44	0.000520584
3745.08	0.000601316
3754.72	-0.00101911
3764.37	-0.000542538
3774.01	-0.000425204
3783.65	-0.000710034
3793.29	-0.00229754
3802.94	-0.000122692
3812.58	-0.00115895
3822.22	-0.000203282
3831.86	0.00031301
3841.51	-0.000529873
3851.15	0.000875848
3860.79	-0.000366768
3870.43	-0.000145901
3880.07	-0.000115445
3889.72	-0.000268193
3899.36	0.000135633
3909	-0.000485155
3918.64	0.000192679
3928.29	-0.000643392
3937.93	4.42645e-05
3947.57	-0.000658775
3957.21	-0.00155636
3966.86	0.000542977
3976.5	-1.93844e-05
3986.14	-0.000703762
3995.78	-0.000301016
