Measurement: Infrared, Infrared Data Processed
Mineral: Bayldonite
Rruff sample: R050670
Ideal chemistry: Cu^2+^_3_Pb^2+^O(As^5+^O_3_OH)_2_(OH)_2_
Locality: Tsumeb mine, Tsumeb, Otavi District, Oshikoto, Namibia
Source: University of Arizona Mineral Museum
Description: Green botryoidal coating asociated with olivenite R050670, malachite balls and azurite
Measured chemistry: Pb_1.00_Cu_3.00_O(As_1.00_O_3_OH)_2_(OH)_2_
x	intensity
399.193	0.0800242
408.835	0.116762
418.477	0.191574
428.12	0.2193
437.762	0.188408
447.404	0.147398
457.047	0.173916
466.689	0.184087
476.331	0.113451
485.974	0.0541453
495.616	0.0346202
505.258	0.0263127
514.901	0.0304594
524.543	0.0378063
534.185	0.0487301
543.828	0.0813081
553.47	0.14083
563.112	0.0875556
572.755	0.062027
582.397	0.107
592.039	0.0916693
601.682	0.0167319
611.324	0.0139404
620.966	0.0257557
630.609	0.0407635
640.251	0.0584439
649.893	0.0807475
659.536	0.109082
669.178	0.143548
678.82	0.184691
688.463	0.234378
698.105	0.267461
707.747	0.301874
717.39	0.342199
727.032	0.370308
736.674	0.354568
746.317	0.294214
755.959	0.293058
765.601	0.311779
775.244	0.285811
784.886	0.221477
794.528	0.185199
804.171	0.225369
813.813	0.214105
823.455	0.122091
833.098	0.106604
842.74	0.129516
852.382	0.116162
862.025	0.132139
871.667	0.102308
881.309	0.0538942
890.952	0.0235825
900.594	0.0108341
910.236	0.0076264
919.879	0.00654725
929.521	0.00803052
939.163	0.010594
948.806	0.0134161
958.448	0.0175151
968.09	0.0226575
977.733	0.0293941
987.375	0.0364706
997.017	0.0429174
1006.66	0.0507753
1016.3	0.0606388
1025.94	0.074638
1035.59	0.0996664
1045.23	0.136946
1054.87	0.140927
1064.51	0.100319
1074.16	0.0909197
1083.8	0.10176
1093.44	0.115444
1103.08	0.138956
1112.72	0.176987
1122.37	0.133956
1132.01	0.0695588
1141.65	0.0439448
1151.3	0.0385721
1160.94	0.0374564
1170.58	0.0322808
1180.22	0.0255854
1189.86	0.0201038
1199.51	0.0151865
1209.15	0.010279
1218.79	0.00572169
1228.43	0.00249818
1238.08	0.00101729
1247.72	0.000118917
1257.36	-0.00061428
1267	-0.000542508
1276.64	-0.000536701
1286.29	-0.00053571
1295.93	-0.000834089
1305.57	-0.000724986
1315.21	-0.000323219
1324.86	1.45659e-06
1334.5	0.000762094
1344.14	0.00125386
1353.78	0.00168916
1363.43	0.00243334
1373.07	0.0036692
1382.71	0.00541041
1392.35	0.00692247
1401.99	0.00652997
1411.64	0.0064108
1421.28	0.00767794
1430.92	0.00885487
1440.57	0.0096763
1450.21	0.0100672
1459.85	0.0105743
1469.49	0.0110683
1479.13	0.0118789
1488.78	0.0132577
1498.42	0.013874
1508.06	0.0142535
1517.7	0.014652
1527.35	0.0148355
1536.99	0.014857
1546.63	0.0148535
1556.27	0.0145977
1565.91	0.0156732
1575.56	0.0157268
1585.2	0.0168675
1594.84	0.0182411
1604.48	0.0190524
1614.13	0.0196267
1623.77	0.0200808
1633.41	0.0206433
1643.05	0.0210975
1652.7	0.0208023
1662.34	0.0217685
1671.98	0.0226106
1681.62	0.0227277
1691.27	0.023495
1700.91	0.0226742
1710.55	0.0238019
1720.19	0.0242907
1729.84	0.024754
1739.48	0.0249885
1749.12	0.0254908
1758.76	0.0269383
1768.4	0.0281526
1778.05	0.0295784
1787.69	0.0313954
1797.33	0.0327276
1806.97	0.0340329
1816.62	0.0353663
1826.26	0.0371573
1835.9	0.0390975
1845.54	0.0413047
1855.18	0.0441293
1864.83	0.046886
1874.47	0.0497457
1884.11	0.0515128
1893.75	0.0545523
1903.4	0.0575386
1913.04	0.0598122
1922.68	0.0629645
1932.32	0.0674034
1941.97	0.0703818
1951.61	0.0755476
1961.25	0.077156
1970.89	0.0825668
1980.54	0.0860526
1990.18	0.0836531
1999.82	0.0753926
2009.46	0.0637891
2019.11	0.0514218
2028.75	0.041151
2038.39	0.0333456
2048.03	0.026438
2057.67	0.0234921
2067.32	0.0199654
2076.96	0.0177658
2086.6	0.0154965
2096.24	0.0133858
2105.89	0.0124617
2115.53	0.0117357
2125.17	0.0110636
2134.81	0.0068797
2144.45	0.00746127
2154.1	0.00437264
2163.74	0.0104191
2173.38	0.00800815
2183.02	0.00598545
2192.67	0.00458961
2202.31	0.000128679
2211.95	0.00048501
2221.59	0.000453681
2231.24	0.00171471
2240.88	0.00102418
2250.52	0.00365923
2260.16	0.00488727
2269.8	0.0078219
2279.45	0.011068
2289.09	0.0140005
2298.73	0.0162656
2308.38	0.0190564
2318.02	0.022074
2327.66	0.0244314
2337.3	0.0270308
2346.94	0.0296516
2356.59	0.0322638
2366.23	0.0336926
2375.87	0.035149
2385.51	0.0364197
2395.16	0.0372931
2404.8	0.0404051
2414.44	0.041734
2424.08	0.0427137
2433.72	0.0436433
2443.37	0.0456328
2453.01	0.0465185
2462.65	0.0473197
2472.29	0.0476537
2481.94	0.0477037
2491.58	0.0479789
2501.22	0.0481102
2510.86	0.0476719
2520.51	0.0480283
2530.15	0.0473628
2539.79	0.047223
2549.43	0.0473355
2559.07	0.0467064
2568.72	0.0453625
2578.36	0.0444839
2588	0.043016
2597.64	0.0420637
2607.29	0.0407056
2616.93	0.0399579
2626.57	0.038478
2636.21	0.0380543
2645.86	0.0364973
2655.5	0.035707
2665.14	0.0339878
2674.78	0.0327369
2684.43	0.0313823
2694.07	0.0302125
2703.71	0.0294699
2713.35	0.0290584
2722.99	0.0287936
2732.64	0.0280877
2742.28	0.0277299
2751.92	0.0267788
2761.56	0.0265304
2771.21	0.0252185
2780.85	0.0241811
2790.49	0.0235159
2800.13	0.0226137
2809.78	0.0218856
2819.42	0.0210147
2829.06	0.0206913
2838.7	0.0199037
2848.34	0.0200088
2857.99	0.0180983
2867.63	0.0164464
2877.27	0.0151165
2886.91	0.0138042
2896.56	0.0134203
2906.2	0.0132613
2915.84	0.0129658
2925.48	0.0128058
2935.13	0.0103293
2944.77	0.00979684
2954.41	0.00845564
2964.05	0.00897847
2973.7	0.00480825
2983.34	0.00678805
2992.98	0.00569779
3002.62	0.00551081
3012.26	0.00666825
3021.91	0.00608647
3031.55	0.00588844
3041.19	0.00687261
3050.83	0.00841174
3060.48	0.00849213
3070.12	0.00780173
3079.76	0.00894669
3089.4	0.00840777
3099.05	0.00817386
3108.69	0.00820078
3118.33	0.00770084
3127.97	0.00904264
3137.61	0.00741325
3147.26	0.00805455
3156.9	0.00851092
3166.54	0.00729436
3176.18	0.00791271
3185.83	0.00743978
3195.47	0.00790405
3205.11	0.00859036
3214.75	0.00958819
3224.4	0.0099635
3234.04	0.00949147
3243.68	0.00814409
3253.32	0.0102816
3262.97	0.0102273
3272.61	0.0102514
3282.25	0.0105781
3291.89	0.0106245
3301.53	0.0104971
3311.18	0.0109549
3320.82	0.0113787
3330.46	0.0103504
3340.1	0.0119922
3349.75	0.0101206
3359.39	0.011011
3369.03	0.00946732
3378.67	0.0107581
3388.32	0.0107078
3397.96	0.0116131
3407.6	0.0120595
3417.24	0.0111964
3426.89	0.0118765
3436.53	0.0108414
3446.17	0.00902979
3455.81	0.00763973
3465.45	0.00842337
3475.1	0.00679292
3484.74	0.00720824
3494.38	0.00705059
3504.02	0.00585517
3513.67	0.00654537
3523.31	0.00527633
3532.95	0.00482038
3542.59	0.00483661
3552.24	0.00385665
3561.88	0.000526339
3571.52	0.00168219
3581.16	0.000768013
3590.8	-0.000484623
3600.45	0.000524297
3610.09	0.000135481
3619.73	-0.00186283
3629.38	-0.00337552
3639.02	-0.00106376
3648.66	-0.00321727
3658.3	-0.00236813
3667.94	-0.000644229
3677.59	-0.00242389
3687.23	-0.00204279
3696.87	-0.00237585
3706.51	-0.000379227
3716.16	0.0011321
3725.8	-0.00064905
3735.44	-0.000142746
3745.08	-0.00239487
3754.72	-0.000543542
3764.37	0.000347882
3774.01	-0.000227347
3783.65	-0.000660017
3793.29	-0.00121129
3802.94	-0.000121713
3812.58	-0.000275202
3822.22	-0.00110549
3831.86	-0.00189079
3841.51	-0.00221755
3851.15	-0.00233392
3860.79	-0.00165888
3870.43	-0.00260614
3880.07	-0.00233074
3889.72	-0.000308856
3899.36	0.000199027
3909	0.000197224
3918.64	-4.82947e-05
3928.29	0.000779331
3937.93	-0.000947207
3947.57	-0.000648439
3957.21	-0.000467263
3966.86	-0.000837162
3976.5	-0.00121862
3986.14	-0.000531524
3995.78	-0.00365047
