Measurement: Infrared, Infrared Data Processed
Mineral: Brazilianite
Rruff sample: R050126
Ideal chemistry: NaAl_3_(PO_4_)_2_(OH)_4_
Locality: Linopolis, Minas Gerais, Brazil
Source: Carlos and Paulo Vasconcelos
Description: Pair of greenish yellow elongated crystals
Measured chemistry: Na_1.00_Al_3.00_(P_1.00_O_4_)_2_((OH)_3.80_F_0.20_)_Î£=4_
x	intensity
50.1401	0.0153019
52.0686	0.00975949
53.9971	0.00774998
55.9255	0.010814
57.854	0.0161549
59.7825	0.02032
61.7109	0.0175546
63.6394	0.0202435
65.5679	0.0223421
67.4963	0.023397
69.4248	0.0203458
71.3533	0.019116
73.2817	0.0197608
75.2102	0.0217509
77.1387	0.0225124
79.0671	0.0232226
80.9956	0.023455
82.9241	0.0245299
84.8525	0.0236692
86.781	0.0246801
88.7095	0.0261746
90.6379	0.0269683
92.5664	0.0268883
94.4948	0.0275949
96.4233	0.0274991
98.3518	0.0271504
100.28	0.0256823
102.209	0.023972
104.137	0.0223853
106.066	0.0212092
107.994	0.0199573
109.923	0.0195624
111.851	0.0205163
113.779	0.0220227
115.708	0.0231088
117.636	0.0240722
119.565	0.0245372
121.493	0.0248726
123.422	0.0253701
125.35	0.0269571
127.279	0.0282095
129.207	0.0290785
131.136	0.029898
133.064	0.0312249
134.993	0.0326077
136.921	0.0344
138.85	0.0354228
140.778	0.0362498
142.707	0.0373182
144.635	0.0383481
146.563	0.0381205
148.492	0.037804
150.42	0.0378417
152.349	0.0385028
154.277	0.0375961
156.206	0.0353972
158.134	0.0324521
160.063	0.0306867
161.991	0.0300009
163.92	0.0298381
165.848	0.0303261
167.777	0.0308967
169.705	0.031612
171.633	0.0326361
173.562	0.0336554
175.49	0.0342435
177.419	0.0344773
179.347	0.0357188
181.276	0.0375486
183.204	0.0390156
185.133	0.0397302
187.061	0.0399851
188.99	0.0400953
190.918	0.0399555
192.847	0.0398946
194.775	0.0397311
196.704	0.0395363
198.632	0.0403705
200.56	0.0416528
202.489	0.0428728
204.417	0.0421281
206.346	0.0409408
208.274	0.040779
210.203	0.0409717
212.131	0.0410063
214.06	0.0409231
215.988	0.0408029
217.917	0.0408092
219.845	0.0404547
221.774	0.0401018
223.702	0.0400238
225.631	0.0406393
227.559	0.0416946
229.488	0.0423713
231.416	0.0430223
233.344	0.0436722
235.273	0.0444786
237.201	0.0455916
239.13	0.0464394
241.058	0.0469901
242.987	0.0473256
244.915	0.0480676
246.844	0.04896
248.772	0.0496004
250.701	0.049183
252.629	0.049335
254.558	0.0495893
256.486	0.0498206
258.414	0.0506659
260.343	0.0517921
262.271	0.0527538
264.2	0.0536379
266.128	0.0543485
268.057	0.0552449
269.985	0.0560798
271.914	0.0573586
273.842	0.0581534
275.771	0.0589714
277.699	0.0602816
279.628	0.0614744
281.556	0.0622676
283.485	0.0632719
285.413	0.0642661
287.341	0.0655033
289.27	0.0664851
291.198	0.0668416
293.127	0.066999
295.055	0.0668164
296.984	0.0654506
298.912	0.0643287
300.841	0.0641282
302.769	0.0648599
304.698	0.0648914
306.626	0.0643305
308.555	0.0630098
310.483	0.061121
312.411	0.0588133
314.34	0.0560548
316.269	0.0526996
318.197	0.0494134
320.125	0.0467475
322.054	0.045926
323.982	0.0468254
325.911	0.0487435
327.839	0.0511951
329.768	0.0533951
331.696	0.0550037
333.625	0.0564995
335.553	0.0581676
337.482	0.0601232
339.41	0.0619434
341.339	0.0628989
343.267	0.0634215
345.195	0.0635367
347.124	0.0622507
349.052	0.0611025
350.981	0.0613693
352.909	0.0619878
354.838	0.062464
356.766	0.0626407
358.695	0.0621218
360.623	0.0618466
362.552	0.0617732
364.48	0.0611378
366.409	0.0601337
368.337	0.0588467
370.265	0.0576569
372.194	0.0574258
374.122	0.058144
376.051	0.0590119
377.979	0.0596848
379.908	0.0602371
381.836	0.0605835
383.765	0.0607046
385.693	0.0607981
387.622	0.0613701
389.55	0.0624625
391.479	0.0637739
393.407	0.0650088
395.336	0.0663488
397.264	0.06746
399.192	0.0678837
401.121	0.0676983
403.049	0.0674307
404.978	0.0672143
406.906	0.0674979
408.835	0.0681405
410.763	0.0687528
412.692	0.0692611
414.62	0.0692253
416.549	0.06843
418.477	0.0673628
420.406	0.065881
422.334	0.0645983
424.262	0.0633392
426.191	0.0622459
428.12	0.0615692
430.048	0.0613441
431.976	0.0615203
433.905	0.0621934
435.833	0.062768
437.762	0.0630477
439.69	0.0631638
441.619	0.0637106
443.547	0.0647509
445.476	0.0661199
447.404	0.0670682
449.333	0.0679929
451.261	0.0689099
453.19	0.0699116
455.118	0.070979
457.046	0.0720269
458.975	0.0733213
460.903	0.0744145
462.832	0.0750789
464.76	0.0757818
466.689	0.0760454
468.617	0.0764053
470.546	0.0765173
472.474	0.0767004
474.403	0.0766131
476.331	0.0758417
478.26	0.0743827
480.188	0.0728554
482.116	0.0712235
484.045	0.0690537
485.974	0.0666567
487.902	0.065004
489.83	0.0641631
491.759	0.0634105
493.687	0.0627331
495.616	0.0619715
497.544	0.0617206
499.473	0.0616032
501.401	0.0611574
503.33	0.0610154
505.258	0.0604865
507.187	0.0594837
509.115	0.058605
511.043	0.057643
512.972	0.0564382
514.9	0.0556997
516.829	0.0550723
518.757	0.0547203
520.686	0.0547008
522.614	0.0552371
524.543	0.0562669
526.471	0.0576547
528.4	0.0595163
530.328	0.0610905
532.257	0.0620484
534.185	0.0631125
536.114	0.0637347
538.042	0.0640557
539.971	0.0639365
541.899	0.0638002
543.827	0.0639495
545.756	0.0637646
547.684	0.0637445
549.613	0.0643866
551.541	0.0654476
553.47	0.0662885
555.398	0.066226
557.327	0.066059
559.255	0.0657232
561.184	0.0648292
563.112	0.0638925
565.041	0.0631197
566.969	0.0620429
568.898	0.0613293
570.826	0.0612092
572.755	0.0612326
574.683	0.0614814
576.611	0.0617744
578.54	0.0615584
580.468	0.0610913
582.397	0.060503
584.325	0.0594637
586.254	0.0584322
588.182	0.0572049
590.111	0.0557773
592.039	0.0543862
593.968	0.0534706
595.896	0.0528932
597.824	0.0531493
599.753	0.0537714
601.682	0.0542911
603.61	0.0548672
605.538	0.0556438
607.467	0.0559783
609.395	0.056332
611.324	0.0570164
613.252	0.0572141
615.181	0.0573256
617.109	0.0576745
619.038	0.057904
620.966	0.0572747
622.894	0.0570318
624.823	0.0567516
626.751	0.0572047
628.68	0.0590676
630.608	0.0604592
632.537	0.0611485
634.465	0.06144
636.394	0.0611365
638.322	0.0604496
640.251	0.0593075
642.179	0.0578455
644.108	0.056465
646.036	0.0548018
647.965	0.0531337
649.893	0.051748
651.822	0.0509882
653.75	0.050831
655.678	0.0514775
657.607	0.0527448
659.535	0.0538896
661.464	0.054297
663.392	0.0543908
665.321	0.0552392
667.249	0.0561377
669.178	0.0563019
671.106	0.056398
673.035	0.0569483
674.963	0.0573064
676.892	0.0578478
678.82	0.0585805
680.749	0.0589038
682.677	0.0585851
684.606	0.0594837
686.534	0.0611451
688.462	0.0615506
690.391	0.0611747
692.319	0.0619513
694.248	0.0629099
696.176	0.0630672
698.105	0.0634408
700.033	0.0645533
