Measurement: Infrared, Infrared Data Processed
Mineral: Burbankite
Rruff sample: R050646
Ideal chemistry: (Na,Ca)_3_(Sr,Ba,Ce)_3_(CO_3_)_5_
Locality: Cerro Sapo, Cochabamba Department, Bolivia
Source: Marcus Origlieri
Description: Brown prismatic crystals associated with blue sodalite, R060405, and dolomite
Measured chemistry: gray: (Na_2.03_Ca_0.97_)_Σ=3_(Sr_3.14_Ba_0.18_Ce_0.17_[box]_0.15_Th_0.10_Nd_0.08_La_0.08_)_Σ=3_(CO_3_)_5_ ; light-gray: (Na_1.97_Ca_1.03_)_Σ=3_(Sr_1.87_[box]_0.40_Ba_0.37_Ce_0.14_Th_0.11_Nd_0.06_La_0.05_)_Σ=3_(CO_3_)_5_ ; C estimated by stoichiometry
x	intensity
399.193	0.0159557
408.835	0.0184289
418.477	0.0211486
428.12	0.0242469
437.762	0.0252431
447.404	0.0240735
457.047	0.0245575
466.689	0.0233067
476.331	0.0192258
485.974	0.0183946
495.616	0.0159712
505.258	0.0161367
514.901	0.0158711
524.543	0.0151999
534.185	0.0160155
543.828	0.0173413
553.47	0.015934
563.112	0.016119
572.755	0.0167689
582.397	0.0176919
592.039	0.0194027
601.682	0.0211645
611.324	0.0238081
620.966	0.0251174
630.609	0.0241513
640.251	0.0248332
649.893	0.0256369
659.536	0.0234215
669.178	0.0242001
678.82	0.0274089
688.463	0.0456052
698.105	0.0606715
707.747	0.0543535
717.39	0.048001
727.032	0.0392882
736.674	0.027393
746.317	0.0202328
755.959	0.0187131
765.601	0.018374
775.244	0.0206744
784.886	0.0207802
794.528	0.0194919
804.171	0.020601
813.813	0.0222022
823.455	0.0247743
833.098	0.0344938
842.74	0.0650201
852.382	0.232311
862.025	0.242342
871.667	0.0508018
881.309	0.017472
890.952	0.0122867
900.594	0.0122668
910.236	0.0133133
919.879	0.0148964
929.521	0.016442
939.163	0.0187489
948.806	0.0214248
958.448	0.024956
968.09	0.0286284
977.733	0.0342374
987.375	0.0401101
997.017	0.046348
1006.66	0.0537423
1016.3	0.0690056
1025.94	0.0655478
1035.59	0.0663566
1045.23	0.0707546
1054.87	0.0832687
1064.51	0.085273
1074.16	0.0720189
1083.8	0.0491654
1093.44	0.0414853
1103.08	0.0422183
1112.72	0.0461138
1122.37	0.0472561
1132.01	0.0445267
1141.65	0.0388455
1151.3	0.0340984
1160.94	0.0325594
1170.58	0.0356143
1180.22	0.0331991
1189.86	0.0310539
1199.51	0.0292392
1209.15	0.0282267
1218.79	0.0291827
1228.43	0.0308476
1238.08	0.0343819
1247.72	0.0388304
1257.36	0.0415454
1267	0.0465952
1276.64	0.0545275
1286.29	0.0615443
1295.93	0.0724779
1305.57	0.0893041
1315.21	0.113256
1324.86	0.14761
1334.5	0.194697
1344.14	0.249844
1353.78	0.296044
1363.43	0.339013
1373.07	0.375344
1382.71	0.391815
1392.35	0.400224
1401.99	0.399189
1411.64	0.391392
1421.28	0.387084
1430.92	0.385571
1440.57	0.38273
1450.21	0.379051
1459.85	0.360415
1469.49	0.343649
1479.13	0.351828
1488.78	0.38264
1498.42	0.400875
1508.06	0.371682
1517.7	0.322823
1527.35	0.275616
1536.99	0.227373
1546.63	0.177901
1556.27	0.135552
1565.91	0.102541
1575.56	0.0771512
1585.2	0.0552959
1594.84	0.0395171
1604.48	0.0283439
1614.13	0.0196927
1623.77	0.0145589
1633.41	0.0134279
1643.05	0.0111429
1652.7	0.0107255
1662.34	0.0090823
1671.98	0.00819483
1681.62	0.00700797
1691.27	0.00545165
1700.91	0.00324856
1710.55	-5.60519e-05
1720.19	0.000640806
1729.84	0.00121374
1739.48	-0.00274217
1749.12	-0.000135835
1758.76	0.00545449
1768.4	0.00925106
1778.05	0.00832887
1787.69	0.00698467
1797.33	0.00560902
1806.97	0.00293654
1816.62	0.0014803
1826.26	-4.01785e-05
1835.9	9.05214e-05
1845.54	0.000625506
1855.18	0.000482928
1864.83	0.000997213
1874.47	0.00120667
1884.11	0.000521005
1893.75	0.000247577
1903.4	0.00102851
1913.04	-0.000444602
1922.68	-0.000520445
1932.32	-0.00164525
1941.97	-0.000549651
1951.61	-0.000467397
1961.25	-0.00190781
1970.89	-0.00126374
1980.54	0.000255181
1990.18	-0.00357913
1999.82	-0.000200221
2009.46	-0.00289243
2019.11	-0.00509474
2028.75	-0.00323087
2038.39	-0.00271156
2048.03	-0.000223908
2057.67	-0.00277079
2067.32	-0.00165956
2076.96	-0.000565713
2086.6	-0.000187482
2096.24	-0.00273576
2105.89	0.000802642
2115.53	0.00185816
2125.17	-0.000545911
2134.81	-0.00190703
2144.45	-0.00349287
2154.1	-0.00775432
2163.74	-0.00329791
2173.38	-0.00309134
2183.02	-0.00151755
2192.67	0.000498741
2202.31	-0.00412456
2211.95	0.000615181
2221.59	0.000688061
2231.24	0.00193046
2240.88	0.00341365
2250.52	0.00119129
2260.16	0.0041749
2269.8	0.00235531
2279.45	0.00475671
2289.09	0.00508943
2298.73	0.00467076
2308.38	0.00491377
2318.02	0.0060033
2327.66	0.00622699
2337.3	0.0058655
2346.94	0.00517648
2356.59	0.00661263
2366.23	0.00681149
2375.87	0.00482924
2385.51	0.0042635
2395.16	0.00395015
2404.8	0.0062323
2414.44	0.00634123
2424.08	0.00676064
2433.72	0.00662466
2443.37	0.00651568
2453.01	0.00774463
2462.65	0.00801
2472.29	0.00821041
2481.94	0.00789817
2491.58	0.0073649
2501.22	0.00664102
2510.86	0.00629094
2520.51	0.00580543
2530.15	0.0063175
2539.79	0.00520605
2549.43	0.00567285
2559.07	0.00813074
2568.72	0.00579703
2578.36	0.00647276
2588	0.00640857
2597.64	0.00557935
2607.29	0.00659648
2616.93	0.00489861
2626.57	0.00409946
2636.21	0.00484445
2645.86	0.00470318
2655.5	0.0040948
2665.14	0.00305804
2674.78	0.0024937
2684.43	0.00194242
2694.07	0.00180553
2703.71	0.00244476
2713.35	0.00209269
2722.99	0.00212925
2732.64	0.000823656
2742.28	0.00123292
2751.92	0.00203768
2761.56	0.00195278
2771.21	0.00167071
2780.85	0.00291271
2790.49	0.00210489
2800.13	0.00191891
2809.78	0.00367521
2819.42	0.00196508
2829.06	0.0026647
2838.7	0.00295371
2848.34	0.00119207
2857.99	0.00152591
2867.63	0.0031639
2877.27	0.00354955
2886.91	0.00350566
2896.56	0.00396002
2906.2	0.00164832
2915.84	0.00205635
2925.48	0.00303885
2935.13	0.00570404
2944.77	0.00441742
2954.41	0.00390831
2964.05	0.00601772
2973.7	0.00550945
2983.34	0.00514512
2992.98	0.00481656
3002.62	0.0071364
3012.26	0.00601316
3021.91	0.00717026
3031.55	0.00454814
3041.19	0.00640769
3050.83	0.00612907
3060.48	0.00624836
3070.12	0.00768849
3079.76	0.00753029
3089.4	0.00926726
3099.05	0.00901875
3108.69	0.0089498
3118.33	0.0101846
3127.97	0.0137852
3137.61	0.0132822
3147.26	0.0116086
3156.9	0.0127665
3166.54	0.0140644
3176.18	0.0136009
3185.83	0.0124465
3195.47	0.0141418
3205.11	0.0159869
3214.75	0.0158526
3224.4	0.0148456
3234.04	0.0139283
3243.68	0.0168661
3253.32	0.0165071
3262.97	0.0162428
3272.61	0.0179773
3282.25	0.016613
3291.89	0.019265
3301.53	0.0190326
3311.18	0.0164923
3320.82	0.0177823
3330.46	0.0163996
3340.1	0.0212214
3349.75	0.0184105
3359.39	0.0187951
3369.03	0.0176166
3378.67	0.0190014
3388.32	0.0172574
3397.96	0.0196593
3407.6	0.0186048
3417.24	0.0177193
3426.89	0.0204015
3436.53	0.0193502
3446.17	0.0172525
3455.81	0.0179098
3465.45	0.0151568
3475.1	0.0158347
3484.74	0.0149316
3494.38	0.0167754
3504.02	0.0182197
3513.67	0.0201182
3523.31	0.0151175
3532.95	0.0178214
3542.59	0.0172107
3552.24	0.0195414
3561.88	0.0122156
3571.52	0.010805
3581.16	0.011269
3590.8	0.00940567
3600.45	0.00804088
3610.09	0.00758769
3619.73	0.00787974
3629.37	0.00798703
3639.02	0.00515758
3648.66	0.00836827
3658.3	0.00736749
3667.94	0.00134716
3677.59	0.00449796
3687.23	0.00914344
3696.87	0.00408295
3706.51	0.00878334
3716.16	0.00491055
3725.8	0.00777171
3735.44	0.000465443
3745.08	0.0108748
3754.72	0.0093984
3764.37	0.00394644
3774.01	0.00749072
3783.65	0.00687712
3793.29	0.00482742
3802.94	0.00512659
3812.58	0.00605463
3822.22	0.0106426
3831.86	0.00480049
3841.51	0.00255707
3851.15	0.00827438
3860.79	0.00805278
3870.43	0.00847279
3880.07	0.00427666
3889.72	0.00791033
3899.36	0.0104739
3909	0.00760057
3918.64	0.00402631
3928.29	0.00567595
3937.93	0.00897584
3947.57	0.0055857
3957.21	0.00705342
3966.86	0.00591763
3976.5	0.00669478
3986.14	0.00739783
3995.78	0.00835989
