Measurement: Infrared, Infrared Data Processed
Mineral: Calcite
Rruff sample: R050130
Ideal chemistry: CaCO_3_
Locality: Mexico
Source: Dave Bunk Minerals
Description: Colorless cleavage rhomb
Measured chemistry: Ca_1.00_CO_3_; trace amounts of Si (?)
x	intensity
50.1401	0.0144767
52.0686	0.0115014
53.9971	0.013937
55.9255	0.0192915
57.854	0.0206757
59.7825	0.0244573
61.7109	0.0232945
63.6394	0.0224167
65.5679	0.0201022
67.4963	0.022549
69.4248	0.0255828
71.3533	0.0281515
73.2817	0.0279614
75.2102	0.0307246
77.1387	0.0325534
79.0671	0.0360977
80.9956	0.0372722
82.9241	0.0403244
84.8525	0.0410422
86.781	0.0407239
88.7095	0.0416031
90.6379	0.0434931
92.5664	0.0430463
94.4948	0.0447555
96.4233	0.0457948
98.3518	0.0459025
100.28	0.0434486
102.209	0.0428644
104.137	0.042171
106.066	0.0413184
107.994	0.039281
109.923	0.0364833
111.851	0.033192
113.779	0.0299436
115.708	0.0268546
117.636	0.0247169
119.565	0.0228848
121.493	0.021641
123.422	0.0204859
125.35	0.0202713
127.279	0.0193336
129.207	0.0181219
131.136	0.0172107
133.064	0.0158232
134.993	0.0144972
136.921	0.0142741
138.85	0.0144174
140.778	0.014682
142.707	0.0151967
144.635	0.0161056
146.563	0.0170396
148.492	0.0179458
150.42	0.019283
152.349	0.0209685
154.277	0.0218568
156.206	0.0232754
158.134	0.024854
160.063	0.0260419
161.991	0.0268283
163.92	0.0284563
165.848	0.0298716
167.777	0.0309397
169.705	0.0318804
171.633	0.0329037
173.562	0.0343863
175.49	0.0363572
177.419	0.0374094
179.347	0.038612
181.276	0.0399897
183.204	0.0412432
185.133	0.0424438
187.061	0.0437611
188.99	0.0450182
190.918	0.0467273
192.847	0.048131
194.775	0.049697
196.704	0.0510183
198.632	0.0527592
200.56	0.0546385
202.489	0.0572347
204.417	0.0588519
206.346	0.0607177
208.274	0.0632594
210.203	0.0658118
212.131	0.0679811
214.06	0.0712188
215.988	0.0739578
217.917	0.0768431
219.845	0.0794176
221.774	0.0817094
223.702	0.0831099
225.631	0.0832213
227.559	0.0805638
229.488	0.075667
231.416	0.0695786
233.344	0.0628387
235.273	0.0560836
237.201	0.0501021
239.13	0.0461181
241.058	0.0447529
242.987	0.0454003
244.915	0.0475069
246.844	0.0500783
248.772	0.0530102
250.701	0.0556707
252.629	0.0587848
254.558	0.0620349
256.486	0.0646975
258.414	0.0673445
260.343	0.0701586
262.271	0.0725396
264.2	0.0750287
266.128	0.077713
268.057	0.0806749
269.985	0.0833643
271.914	0.0861903
273.842	0.0881555
275.771	0.09055
277.699	0.0935906
279.628	0.0964658
281.556	0.0986725
283.485	0.101422
285.413	0.103935
287.341	0.106295
289.27	0.108674
291.198	0.111426
293.127	0.113083
295.055	0.114552
296.984	0.115463
298.912	0.115867
300.841	0.11636
302.769	0.116518
304.698	0.115238
306.626	0.114076
308.555	0.112656
310.483	0.111121
312.411	0.108816
314.34	0.106648
316.269	0.103947
318.197	0.101132
320.125	0.0985475
322.054	0.0959013
323.982	0.0927339
325.911	0.0898776
327.839	0.0870535
329.768	0.0841454
331.696	0.0810251
333.625	0.0782673
335.553	0.0756868
337.482	0.0732733
339.41	0.0709488
341.339	0.0687555
343.267	0.0664163
345.195	0.0644401
347.124	0.0624845
349.052	0.0603908
350.981	0.0583677
352.909	0.0566788
354.838	0.0549316
356.766	0.0529395
358.695	0.0509993
360.623	0.0493463
362.552	0.0477158
364.48	0.0462337
366.409	0.0448919
368.337	0.0435741
370.265	0.0422318
372.194	0.0408527
374.122	0.0394442
376.051	0.037866
377.979	0.0362122
379.908	0.0346978
381.836	0.0335727
383.765	0.032361
385.693	0.0309378
387.622	0.0297633
389.55	0.0288677
391.479	0.0280874
393.407	0.0272274
395.336	0.026371
397.264	0.0255996
399.192	0.0249911
401.121	0.0243647
403.049	0.0239043
404.978	0.0233959
406.906	0.0229824
408.835	0.0227745
410.763	0.0226612
412.692	0.0224605
414.62	0.0223409
416.549	0.0222349
418.477	0.0221355
420.406	0.0218636
422.334	0.0215643
424.262	0.0213948
426.191	0.0214348
428.12	0.0215056
430.048	0.0211726
431.976	0.0209453
433.905	0.0207288
435.833	0.0205524
437.762	0.0204286
439.69	0.0201214
441.619	0.0198682
443.547	0.0200439
445.476	0.020175
447.404	0.0199383
449.333	0.0196789
451.261	0.0198585
453.19	0.0198522
455.118	0.0196817
457.046	0.0196518
458.975	0.0196361
460.903	0.0198768
462.832	0.019884
464.76	0.0201629
466.689	0.0201162
468.617	0.0197946
470.546	0.0196084
472.474	0.0198818
474.403	0.0199864
476.331	0.0198981
478.26	0.0198589
480.188	0.020017
482.116	0.0200354
484.045	0.0199027
485.974	0.0197221
487.902	0.0198628
489.83	0.0198058
491.759	0.0196346
493.687	0.0197481
495.616	0.0199415
497.544	0.0198993
499.473	0.019501
501.401	0.0195022
503.33	0.0196884
505.258	0.019548
507.187	0.0192884
509.115	0.0188037
511.043	0.0185869
512.972	0.0186078
514.9	0.0186231
516.829	0.0188325
518.757	0.0189664
520.686	0.0189413
522.614	0.0187242
524.543	0.0188272
526.471	0.0190761
528.4	0.0191512
530.328	0.0189967
532.257	0.0187977
534.185	0.0189358
536.114	0.0186113
538.042	0.0183261
539.971	0.0183534
541.899	0.018084
543.827	0.0179812
545.756	0.0180525
547.684	0.0181211
549.613	0.0181965
551.541	0.0182236
553.47	0.0180908
555.398	0.0181776
557.327	0.0182285
559.255	0.0179037
561.184	0.0178568
563.112	0.0182233
565.041	0.0181702
566.969	0.0179623
568.898	0.0182189
570.826	0.0184139
572.755	0.0189248
574.683	0.0192026
576.611	0.0191439
578.54	0.0191157
580.468	0.019215
582.397	0.0195545
584.325	0.0196616
586.254	0.0195417
588.182	0.0195164
590.111	0.0194768
592.039	0.0192306
593.968	0.0190328
595.896	0.0188527
597.824	0.0187118
599.753	0.0186847
601.682	0.0182268
603.61	0.0178509
605.538	0.0179641
607.467	0.018243
609.395	0.0180416
611.324	0.0173781
613.252	0.016996
615.181	0.0174412
617.109	0.017661
619.038	0.0178689
620.966	0.0181132
622.894	0.0185681
624.823	0.0191426
626.751	0.0196802
628.68	0.0206337
630.608	0.0217899
632.537	0.0222999
634.465	0.0223415
636.394	0.0223456
638.322	0.0221808
640.251	0.0221073
642.179	0.0225216
644.108	0.0228708
646.036	0.023126
647.965	0.0232206
649.893	0.0232686
651.822	0.0233539
653.75	0.0233489
655.678	0.0236561
657.607	0.024145
659.535	0.0244637
661.464	0.0244353
663.392	0.0244911
665.321	0.0246775
667.249	0.024903
669.178	0.0249102
671.106	0.0251684
673.035	0.0252948
674.963	0.0254367
676.892	0.0259394
678.82	0.0267365
680.749	0.0272079
682.677	0.0273994
684.606	0.027508
686.534	0.0270014
688.462	0.0274812
690.391	0.0283986
692.319	0.0290964
694.248	0.0296888
696.176	0.0296521
698.105	0.0299369
700.033	0.031185
