Measurement: Infrared, Infrared Data Processed
Mineral: Cassiterite
Rruff sample: R040072
Ideal chemistry: SnO_2_
Locality: Bolivia
Source: University of Arizona Mineral Museum
Description: Black fragment
Measured chemistry: Sn_0.99_O_2_
x	intensity
399.193	0
408.835	0.152148
418.477	0.169082
428.12	0.195849
437.762	0.222011
447.404	0.245233
457.047	0.269423
466.689	0.28703
476.331	0.294497
485.974	0.299659
495.616	0.303165
505.258	0.307256
514.901	0.308502
524.543	0.305585
534.185	0.299837
543.828	0.293302
553.47	0.288062
563.112	0.284575
572.755	0.285843
582.397	0.287174
592.039	0.288072
601.682	0.28444
611.324	0.27545
620.966	0.260171
630.609	0.239375
640.251	0.218056
649.893	0.196019
659.536	0.176576
669.178	0.158072
678.82	0.140608
688.463	0.12271
698.105	0.107353
707.747	0.0934318
717.39	0.082576
727.032	0.0713123
736.674	0.0580076
746.317	0.0444772
755.959	0.0337419
765.601	0.0277811
775.244	0.0256659
784.886	0.02471
794.528	0.0246945
804.171	0.0256511
813.813	0.0261654
823.455	0.0267797
833.098	0.0270425
842.74	0.0275285
852.382	0.0275068
862.025	0.0282925
871.667	0.0290302
881.309	0.0310462
890.952	0.0338749
900.594	0.0353947
910.236	0.0353637
919.879	0.0354598
929.521	0.0341387
939.163	0.0342255
948.806	0.0349944
958.448	0.0354253
968.09	0.034948
977.733	0.0356834
987.375	0.0367008
997.017	0.0382786
1006.66	0.0395081
1016.3	0.03978
1025.94	0.0390296
1035.59	0.037988
1045.23	0.0373952
1054.87	0.0375986
1064.51	0.0377446
1074.16	0.0375651
1083.8	0.0374143
1093.44	0.0374594
1103.08	0.0373331
1112.72	0.03747
1122.37	0.0376749
1132.01	0.0378024
1141.65	0.038042
1151.3	0.0380363
1160.94	0.038456
1170.58	0.0385117
1180.22	0.0390887
1189.86	0.0394573
1199.51	0.0397468
1209.15	0.0401509
1218.79	0.0406514
1228.43	0.0408642
1238.08	0.0413695
1247.72	0.0417716
1257.36	0.042214
1267	0.0424218
1276.64	0.0429152
1286.29	0.0434995
1295.93	0.0438767
1305.57	0.0443277
1315.21	0.0446176
1324.86	0.0450974
1334.5	0.0460625
1344.14	0.0466477
1353.78	0.0474719
1363.43	0.0478322
1373.07	0.0484902
1382.71	0.0486045
1392.35	0.0492925
1401.99	0.0499781
1411.64	0.0504316
1421.28	0.0507437
1430.92	0.0508195
1440.57	0.0515372
1450.21	0.0511697
1459.85	0.051391
1469.49	0.0507678
1479.13	0.0506247
1488.78	0.0505804
1498.42	0.0508428
1508.06	0.0509792
1517.7	0.0511748
1527.35	0.0518634
1536.99	0.0525712
1546.63	0.0533784
1556.27	0.0538937
1565.91	0.0549591
1575.56	0.0551162
1585.2	0.0557511
1594.84	0.056574
1604.48	0.0566583
1614.13	0.0562001
1623.77	0.056111
1633.41	0.0556759
1643.05	0.0556629
1652.7	0.0545614
1662.34	0.0549033
1671.98	0.0551669
1681.62	0.0551717
1691.27	0.0552536
1700.91	0.0549573
1710.55	0.0551934
1720.19	0.0552769
1729.84	0.0558601
1739.48	0.0552001
1749.12	0.0556173
1758.76	0.0558816
1768.4	0.0564425
1778.05	0.0564576
1787.69	0.0566188
1797.33	0.0562144
1806.97	0.0570844
1816.62	0.0572055
1826.26	0.0576048
1835.9	0.0577534
1845.54	0.0579691
1855.18	0.0575781
1864.83	0.0575449
1874.47	0.0578639
1884.11	0.05778
1893.75	0.0584868
1903.4	0.0585483
1913.04	0.058549
1922.68	0.0576877
1932.32	0.0584702
1941.97	0.058052
1951.61	0.0595558
1961.25	0.0579466
1970.89	0.058132
1980.54	0.0592854
1990.18	0.0610002
1999.82	0.0582491
2009.46	0.0602815
2019.11	0.0589399
2028.75	0.0584254
2038.39	0.0614519
2048.03	0.063547
2057.67	0.0629231
2067.32	0.0617172
2076.96	0.0617996
2086.6	0.0632544
2096.24	0.0644988
2105.89	0.0645561
2115.53	0.0626224
2125.17	0.0629935
2134.81	0.0588213
2144.45	0.0616429
2154.1	0.0584303
2163.74	0.0624258
2173.38	0.0627925
2183.02	0.0618489
2192.67	0.0631165
2202.31	0.0641676
2211.95	0.0650559
2221.59	0.0654639
2231.24	0.0654099
2240.88	0.0662507
2250.52	0.0648515
2260.16	0.0667709
2269.8	0.0671585
2279.45	0.0672397
2289.09	0.067356
2298.73	0.0679082
2308.38	0.0683539
2318.02	0.0692028
2327.66	0.0680693
2337.3	0.0689112
2346.94	0.0685514
2356.59	0.0686734
2366.23	0.0682566
2375.87	0.0687142
2385.51	0.0681259
2395.16	0.0682677
2404.8	0.068159
2414.44	0.0689738
2424.08	0.0690956
2433.72	0.069291
2443.37	0.0699496
2453.01	0.0704139
2462.65	0.0700884
2472.29	0.0702748
2481.94	0.07007
2491.58	0.0706781
2501.22	0.0708836
2510.86	0.0704755
2520.51	0.0707461
2530.15	0.0702022
2539.79	0.0720386
2549.43	0.0721378
2559.07	0.0725115
2568.72	0.072158
2578.36	0.0725204
2588	0.0731592
2597.64	0.0728665
2607.29	0.0744138
2616.93	0.0740869
2626.57	0.0731889
2636.21	0.0744045
2645.86	0.0743401
2655.5	0.0735854
2665.14	0.0743556
2674.78	0.0744069
2684.43	0.0738447
2694.07	0.0751266
2703.71	0.0750056
2713.35	0.0745339
2722.99	0.076173
2732.64	0.0762268
2742.28	0.0762652
2751.92	0.0759694
2761.56	0.0763408
2771.21	0.0766067
2780.85	0.0765128
2790.49	0.0764899
2800.13	0.0776981
2809.78	0.0771412
2819.42	0.0774327
2829.06	0.0770959
2838.7	0.077507
2848.34	0.0772209
2857.99	0.0776894
2867.63	0.0778127
2877.27	0.0784365
2886.91	0.0784737
2896.56	0.0799008
2906.2	0.0786105
2915.84	0.0791808
2925.48	0.0782516
2935.13	0.0793299
2944.77	0.0790812
2954.41	0.0803375
2964.05	0.080741
2973.7	0.0817138
2983.34	0.0810484
2992.98	0.081449
3002.62	0.0812763
3012.26	0.0816873
3021.91	0.0833218
3031.55	0.0825813
3041.19	0.081119
3050.83	0.0838915
3060.48	0.0833603
3070.12	0.0835445
3079.76	0.0843354
3089.4	0.085401
3099.05	0.0835862
3108.69	0.0857168
3118.33	0.085239
3127.97	0.084905
3137.61	0.0851337
3147.26	0.0843345
3156.9	0.0870426
3166.54	0.0865485
3176.18	0.0863502
3185.83	0.0873126
3195.47	0.08735
3205.11	0.0887288
3214.75	0.088333
3224.4	0.0883601
3234.04	0.0884574
3243.68	0.0889307
3253.32	0.0886841
3262.97	0.0916439
3272.61	0.0897261
3282.25	0.0909648
3291.89	0.0897992
3301.53	0.0895601
3311.18	0.091245
3320.82	0.0901002
3330.46	0.0899881
3340.1	0.0922425
3349.75	0.0908446
3359.39	0.0929427
3369.03	0.0917702
3378.67	0.0931366
3388.32	0.0937714
3397.96	0.093566
3407.6	0.0926296
3417.24	0.0929717
3426.89	0.09173
3436.53	0.0917903
3446.17	0.0927345
3455.81	0.0954594
3465.45	0.0935295
3475.1	0.091864
3484.74	0.0926597
3494.38	0.0932019
3504.02	0.0951942
3513.67	0.0937038
3523.31	0.0942322
3532.95	0.0948556
3542.59	0.094354
3552.24	0.0946569
3561.88	0.0969106
3571.52	0.0969558
3581.16	0.0941016
3590.8	0.095682
3600.45	0.0946672
3610.09	0.094142
3619.73	0.0950177
3629.37	0.0934524
3639.02	0.0942627
3648.66	0.093324
3658.3	0.0942589
3667.94	0.0976722
3677.59	0.0935868
3687.23	0.0936942
3696.87	0.0961878
3706.51	0.0979568
3716.16	0.0980162
3725.8	0.0991423
3735.44	0.0959384
3745.08	0.0978035
3754.72	0.10234
3764.37	0.101341
3774.01	0.100609
3783.65	0.102553
3793.29	0.103174
3802.94	0.101505
3812.58	0.103192
3822.22	0.101871
3831.86	0.101877
3841.51	0.10329
3851.15	0.102336
3860.79	0.101283
3870.43	0.103907
3880.07	0.102
3889.72	0.103399
3899.36	0.101652
3909	0.10451
3918.64	0.106982
3928.29	0.104306
3937.93	0.107305
3947.57	0.104573
3957.21	0.105104
3966.86	0.108247
3976.5	0.108665
3986.14	0.10747
3995.78	0.10753
