Measurement: Infrared, Infrared Data Processed
Mineral: Cerussite
Rruff sample: R050023
Ideal chemistry: Pb^2+^CO_3_
Locality: Mammoth - St Anthony mine, Tiger, Pinal County, Arizona, USA
Source: Eugene Schlepp
Description: Prismatic white single crystals
Measured chemistry: Pb_1.00_CO_3_ ; CO_2_ not measured but estimated by difference and stoichiometry
x	intensity
399.193	0
408.835	0.0145451
418.477	0.0108103
428.12	0.0140571
437.762	0.0157626
447.404	0.0157002
457.047	0.0169312
466.689	0.0180827
476.331	0.0191653
485.974	0.0198116
495.616	0.0215255
505.258	0.0227102
514.901	0.0244288
524.543	0.0266113
534.185	0.0291599
543.828	0.0312477
553.47	0.0340927
563.112	0.0355873
572.755	0.0384115
582.397	0.0422228
592.039	0.0456982
601.682	0.0490765
611.324	0.0546151
620.966	0.0611142
630.609	0.0680165
640.251	0.0783754
649.893	0.0949553
659.536	0.129422
669.178	0.238107
678.82	0.262837
688.463	0.0240895
698.105	0.030337
707.747	0.0322737
717.39	0.0410945
727.032	0.0489866
736.674	0.0534233
746.317	0.0553041
755.959	0.0594182
765.601	0.065474
775.244	0.0721611
784.886	0.078755
794.528	0.0859875
804.171	0.0975139
813.813	0.120819
823.455	0.189217
833.098	0.333534
842.74	0.177176
852.382	0.0782737
862.025	0.0745435
871.667	0.0777709
881.309	0.0794734
890.952	0.0827411
900.594	0.0862509
910.236	0.0903221
919.879	0.0946173
929.521	0.0992704
939.163	0.103867
948.806	0.108461
958.448	0.11315
968.09	0.117575
977.733	0.123507
987.375	0.133458
997.017	0.135514
1006.66	0.13599
1016.3	0.142079
1025.94	0.150482
1035.59	0.162586
1045.23	0.205496
1054.87	0.163652
1064.51	0.152437
1074.16	0.16508
1083.8	0.176784
1093.44	0.191249
1103.08	0.202624
1112.72	0.198361
1122.37	0.198173
1132.01	0.208071
1141.65	0.216739
1151.3	0.225436
1160.94	0.234023
1170.58	0.24395
1180.22	0.255646
1189.86	0.268623
1199.51	0.282809
1209.15	0.297857
1218.79	0.31312
1228.43	0.330984
1238.08	0.350329
1247.72	0.372199
1257.36	0.397126
1267	0.423977
1276.64	0.45191
1286.29	0.480133
1295.93	0.506666
1305.57	0.527333
1315.21	0.547055
1324.86	0.574022
1334.5	0.605887
1344.14	0.641889
1353.78	0.683455
1363.43	0.719511
1373.07	0.73376
1382.71	0.697009
1392.35	0.613648
1401.99	0.523407
1411.64	0.461808
1421.28	0.441436
1430.92	0.422409
1440.57	0.369833
1450.21	0.312357
1459.85	0.263216
1469.49	0.21916
1479.13	0.176784
1488.78	0.132637
1498.42	0.0968967
1508.06	0.0725146
1517.7	0.059882
1527.35	0.0513078
1536.99	0.0433032
1546.63	0.0402373
1556.27	0.034149
1565.91	0.0340955
1575.56	0.0276934
1585.2	0.0288006
1594.84	0.026722
1604.48	0.0257413
1614.13	0.0242827
1623.77	0.0234578
1633.41	0.0220597
1643.05	0.0228237
1652.7	0.0156901
1662.34	0.0217372
1671.98	0.0223845
1681.62	0.0219105
1691.27	0.0246868
1700.91	0.023001
1710.55	0.0269648
1720.19	0.0356127
1729.84	0.0702964
1739.48	0.0507189
1749.12	0.0285606
1758.76	0.0268958
1768.4	0.0282711
1778.05	0.0297078
1787.69	0.0310603
1797.33	0.0317939
1806.97	0.0329959
1816.62	0.0341263
1826.26	0.0355742
1835.9	0.0362406
1845.54	0.0365902
1855.18	0.0384749
1864.83	0.0401007
1874.47	0.040296
1884.11	0.04272
1893.75	0.0424347
1903.4	0.0438691
1913.04	0.0438514
1922.68	0.0459842
1932.32	0.0460403
1941.97	0.0475646
1951.61	0.0470823
1961.25	0.048547
1970.89	0.0499617
1980.54	0.053786
1990.18	0.0524445
1999.82	0.0504244
2009.46	0.0537315
2019.11	0.0529502
2028.75	0.0550126
2038.39	0.060404
2048.03	0.0586255
2057.67	0.0595765
2067.32	0.0617364
2076.96	0.0610684
2086.6	0.0608883
2096.24	0.0607165
2105.89	0.0613926
2115.53	0.0667652
2125.17	0.0630173
2134.81	0.0639967
2144.45	0.0638799
2154.1	0.0645615
2163.74	0.0672794
2173.38	0.0658893
2183.02	0.0667954
2192.67	0.0723128
2202.31	0.0721634
2211.95	0.0708454
2221.59	0.0743059
2231.24	0.076433
2240.88	0.0765651
2250.52	0.0766263
2260.16	0.0787502
2269.8	0.0794181
2279.45	0.0821935
2289.09	0.0832666
2298.73	0.0834105
2308.38	0.0849223
2318.02	0.0872024
2327.66	0.0877684
2337.3	0.0891484
2346.94	0.0905951
2356.59	0.0914736
2366.23	0.0932366
2375.87	0.0949838
2385.51	0.0996513
2395.16	0.108669
2404.8	0.116711
2414.44	0.112799
2424.08	0.103984
2433.72	0.09918
2443.37	0.0970898
2453.01	0.096657
2462.65	0.0973836
2472.29	0.0978187
2481.94	0.0985156
2491.58	0.097025
2501.22	0.0982746
2510.86	0.0987877
2520.51	0.0993279
2530.15	0.0982574
2539.79	0.0991721
2549.43	0.0983392
2559.07	0.0974444
2568.72	0.0992478
2578.36	0.100691
2588	0.101622
2597.64	0.103256
2607.29	0.10495
2616.93	0.106144
2626.57	0.106962
2636.21	0.108968
2645.86	0.109068
2655.5	0.10967
2665.14	0.111508
2674.78	0.112039
2684.43	0.113565
2694.07	0.115311
2703.71	0.117246
2713.35	0.118362
2722.99	0.121275
2732.64	0.123834
2742.28	0.124828
2751.92	0.123789
2761.56	0.125043
2771.21	0.125152
2780.85	0.126721
2790.49	0.127905
2800.13	0.128093
2809.78	0.127659
2819.42	0.128897
2829.06	0.128409
2838.7	0.12934
2848.34	0.129057
2857.99	0.128727
2867.63	0.128485
2877.27	0.130114
2886.91	0.130466
2896.56	0.132942
2906.2	0.134709
2915.84	0.136022
2925.48	0.137277
2935.13	0.135609
2944.77	0.136627
2954.41	0.137346
2964.05	0.140534
2973.7	0.140982
2983.34	0.142776
2992.98	0.14448
3002.62	0.1445
3012.26	0.147763
3021.91	0.146283
3031.55	0.146996
3041.19	0.148723
3050.83	0.151342
3060.48	0.151288
3070.12	0.152262
3079.76	0.15481
3089.4	0.154393
3099.05	0.156251
3108.69	0.15721
3118.33	0.156291
3127.97	0.159056
3137.61	0.159839
3147.26	0.161065
3156.9	0.164215
3166.54	0.164891
3176.18	0.162811
3185.83	0.166103
3195.47	0.168955
3205.11	0.169168
3214.75	0.169495
3224.4	0.16921
3234.04	0.172545
3243.68	0.173082
3253.32	0.175106
3262.97	0.175245
3272.61	0.173871
3282.25	0.176151
3291.89	0.177943
3301.53	0.179144
3311.18	0.179997
3320.82	0.180877
3330.46	0.182875
3340.1	0.181932
3349.75	0.185634
3359.39	0.184022
3369.03	0.187305
3378.67	0.188361
3388.32	0.187335
3397.96	0.188891
3407.6	0.189528
3417.24	0.188419
3426.89	0.190378
3436.53	0.192737
3446.17	0.191472
3455.81	0.189946
3465.45	0.191459
3475.1	0.191768
3484.74	0.192676
3494.38	0.196694
3504.02	0.194638
3513.67	0.197369
3523.31	0.198931
3532.95	0.199063
3542.59	0.197891
3552.24	0.202154
3561.88	0.200722
3571.52	0.199996
3581.16	0.204685
3590.8	0.204291
3600.45	0.20473
3610.09	0.202939
3619.73	0.201319
3629.37	0.201367
3639.02	0.213966
3648.66	0.199286
3658.3	0.20853
3667.94	0.206489
3677.59	0.214029
3687.23	0.21129
3696.87	0.215787
3706.51	0.216121
3716.16	0.216426
3725.8	0.215296
3735.44	0.214156
3745.08	0.216654
3754.72	0.218166
3764.37	0.219619
3774.01	0.221532
3783.65	0.219391
3793.29	0.225706
3802.94	0.225419
3812.58	0.228096
3822.22	0.226026
3831.86	0.232295
3841.51	0.228983
3851.15	0.224632
3860.79	0.232724
3870.43	0.230009
3880.07	0.235209
3889.72	0.235086
3899.36	0.235349
3909	0.233681
3918.64	0.240838
3928.29	0.240837
3937.93	0.247324
3947.57	0.244677
3957.21	0.240288
3966.86	0.241764
3976.5	0.248864
3986.14	0.250781
3995.78	0.250159
