Measurement: Infrared, Infrared Data Processed
Mineral: Chalcocite
Rruff sample: R050067
Ideal chemistry: Cu^1+^_2_S^2-^
Locality: Flambeau, Rusk County, Wisconsin, USA
Source: Rock Currier
Description: Iridescent blue irregular hexagonal tablet
Measured chemistry: Cu_2.00_S_1.00_
x	intensity
399.193	0
408.835	0.228005
418.477	0.229374
428.12	0.228708
437.762	0.230011
447.404	0.230818
457.047	0.232983
466.689	0.236079
476.331	0.238512
485.974	0.239988
495.616	0.241401
505.258	0.244317
514.901	0.245833
524.543	0.248307
534.185	0.249676
543.828	0.251285
553.47	0.253248
563.112	0.255542
572.755	0.257205
582.397	0.259985
592.039	0.260395
601.682	0.262314
611.324	0.263241
620.966	0.26554
630.609	0.267266
640.251	0.268949
649.893	0.270164
659.536	0.271687
669.178	0.273093
678.82	0.274811
688.463	0.27566
698.105	0.276966
707.747	0.278322
717.39	0.2795
727.032	0.280462
736.674	0.281763
746.317	0.283107
755.959	0.284279
765.601	0.285975
775.244	0.2867
784.886	0.288852
794.528	0.29006
804.171	0.291348
813.813	0.292787
823.455	0.294372
833.098	0.295524
842.74	0.297653
852.382	0.298583
862.025	0.300771
871.667	0.302023
881.309	0.302783
890.952	0.304385
900.594	0.305693
910.236	0.307425
919.879	0.308891
929.521	0.309801
939.163	0.310701
948.806	0.311773
958.448	0.313359
968.09	0.313992
977.733	0.314931
987.375	0.315885
997.017	0.317246
1006.66	0.318198
1016.3	0.31995
1025.94	0.321128
1035.59	0.322135
1045.23	0.323144
1054.87	0.324342
1064.51	0.325423
1074.16	0.326808
1083.8	0.32735
1093.44	0.328731
1103.08	0.329968
1112.72	0.331098
1122.37	0.332393
1132.01	0.334215
1141.65	0.336263
1151.3	0.337377
1160.94	0.337425
1170.58	0.337967
1180.22	0.338735
1189.86	0.340165
1199.51	0.342148
1209.15	0.342802
1218.79	0.343905
1228.43	0.344754
1238.08	0.345552
1247.72	0.346756
1257.36	0.347451
1267	0.348033
1276.64	0.34936
1286.29	0.350806
1295.93	0.351927
1305.57	0.352702
1315.21	0.353359
1324.86	0.354805
1334.5	0.355712
1344.14	0.35665
1353.78	0.357799
1363.43	0.358649
1373.07	0.35923
1382.71	0.359774
1392.35	0.360753
1401.99	0.361656
1411.64	0.362408
1421.28	0.363236
1430.92	0.364422
1440.57	0.365045
1450.21	0.366652
1459.85	0.367254
1469.49	0.368062
1479.13	0.369443
1488.78	0.370311
1498.42	0.370853
1508.06	0.37211
1517.7	0.373312
1527.35	0.374586
1536.99	0.375364
1546.63	0.376372
1556.27	0.377222
1565.91	0.377797
1575.56	0.379624
1585.2	0.38017
1594.84	0.380567
1604.48	0.382114
1614.13	0.382641
1623.77	0.383779
1633.41	0.384703
1643.05	0.385911
1652.7	0.38628
1662.34	0.387239
1671.98	0.387848
1681.62	0.388685
1691.27	0.389805
1700.91	0.390029
1710.55	0.391729
1720.19	0.392381
1729.84	0.393179
1739.48	0.394558
1749.12	0.395159
1758.76	0.396076
1768.4	0.396219
1778.05	0.396822
1787.69	0.397301
1797.33	0.398115
1806.97	0.398875
1816.62	0.398303
1826.26	0.399923
1835.9	0.399248
1845.54	0.399977
1855.18	0.400573
1864.83	0.400784
1874.47	0.401658
1884.11	0.40183
1893.75	0.40227
1903.4	0.401971
1913.04	0.402937
1922.68	0.402926
1932.32	0.401487
1941.97	0.399217
1951.61	0.397856
1961.25	0.39742
1970.89	0.394761
1980.54	0.398357
1990.18	0.398343
1999.82	0.39907
2009.46	0.394666
2019.11	0.398331
2028.75	0.397079
2038.39	0.401764
2048.03	0.407068
2057.67	0.410386
2067.32	0.411357
2076.96	0.414607
2086.6	0.416215
2096.24	0.415496
2105.89	0.418068
2115.53	0.419832
2125.17	0.416771
2134.81	0.415198
2144.45	0.414572
2154.1	0.406786
2163.74	0.409644
2173.38	0.413232
2183.02	0.415726
2192.67	0.418033
2202.31	0.420124
2211.95	0.422592
2221.59	0.424452
2231.24	0.426826
2240.88	0.428804
2250.52	0.429521
2260.16	0.433875
2269.8	0.434158
2279.45	0.437941
2289.09	0.440736
2298.73	0.442337
2308.38	0.445192
2318.02	0.446569
2327.66	0.448424
2337.3	0.448986
2346.94	0.449637
2356.59	0.450128
2366.23	0.450076
2375.87	0.451035
2385.51	0.450509
2395.16	0.452283
2404.8	0.452488
2414.44	0.452647
2424.08	0.452526
2433.72	0.453787
2443.37	0.455812
2453.01	0.456066
2462.65	0.456748
2472.29	0.458626
2481.94	0.458992
2491.58	0.459473
2501.22	0.460857
2510.86	0.462624
2520.51	0.463389
2530.15	0.463825
2539.79	0.465261
2549.43	0.466102
2559.07	0.467485
2568.72	0.469436
2578.36	0.468176
2588	0.470424
2597.64	0.472345
2607.29	0.473275
2616.93	0.475106
2626.57	0.477519
2636.21	0.478246
2645.86	0.480744
2655.5	0.482231
2665.14	0.483436
2674.78	0.483855
2684.43	0.485149
2694.07	0.484989
2703.71	0.486718
2713.35	0.486709
2722.99	0.488515
2732.64	0.488964
2742.28	0.489793
2751.92	0.490117
2761.56	0.4908
2771.21	0.492611
2780.85	0.493479
2790.49	0.493509
2800.13	0.494879
2809.78	0.495306
2819.42	0.496562
2829.06	0.496787
2838.7	0.498161
2848.34	0.499492
2857.99	0.498258
2867.63	0.499801
2877.27	0.500874
2886.91	0.502022
2896.56	0.502266
2906.2	0.504011
2915.84	0.503865
2925.48	0.502616
2935.13	0.504113
2944.77	0.505231
2954.41	0.505715
2964.05	0.506077
2973.7	0.507015
2983.34	0.507231
2992.98	0.50936
3002.62	0.510435
3012.26	0.510677
3021.91	0.511454
3031.55	0.512964
3041.19	0.514032
3050.83	0.514944
3060.48	0.514822
3070.12	0.51663
3079.76	0.517085
3089.4	0.517205
3099.05	0.518957
3108.69	0.520008
3118.33	0.519538
3127.97	0.520656
3137.61	0.522995
3147.26	0.522822
3156.9	0.523649
3166.54	0.525183
3176.18	0.525544
3185.83	0.527625
3195.47	0.528134
3205.11	0.526804
3214.75	0.529606
3224.4	0.529949
3234.04	0.530844
3243.68	0.5338
3253.32	0.532468
3262.97	0.535826
3272.61	0.535861
3282.25	0.536322
3291.89	0.53871
3301.53	0.540323
3311.18	0.539197
3320.82	0.541149
3330.46	0.54164
3340.1	0.542959
3349.75	0.541769
3359.39	0.544246
3369.03	0.544999
3378.67	0.547626
3388.32	0.546403
3397.96	0.548578
3407.6	0.550319
3417.24	0.549709
3426.89	0.550744
3436.53	0.55215
3446.17	0.553459
3455.81	0.554832
3465.45	0.556215
3475.1	0.555478
3484.74	0.557079
3494.38	0.558793
3504.02	0.558714
3513.67	0.559785
3523.31	0.562701
3532.95	0.561585
3542.59	0.562394
3552.24	0.563958
3561.88	0.563713
3571.52	0.564329
3581.16	0.564561
3590.8	0.568928
3600.45	0.564743
3610.09	0.568461
3619.73	0.571112
3629.37	0.570223
3639.02	0.569698
3648.66	0.574135
3658.3	0.575733
3667.94	0.577077
3677.59	0.5764
3687.23	0.57675
3696.87	0.57776
3706.51	0.579932
3716.16	0.580243
3725.8	0.585008
3735.44	0.585227
3745.08	0.585584
3754.72	0.584588
3764.37	0.584971
3774.01	0.587001
3783.65	0.588159
3793.29	0.58861
3802.94	0.590473
3812.58	0.590123
3822.22	0.594818
3831.86	0.593285
3841.51	0.596579
3851.15	0.595
3860.79	0.598467
3870.43	0.596905
3880.07	0.599894
3889.72	0.599231
3899.36	0.602479
3909	0.602675
3918.64	0.602326
3928.29	0.604815
3937.93	0.605009
3947.57	0.605198
3957.21	0.607173
3966.86	0.607869
3976.5	0.610271
3986.14	0.610182
3995.78	0.610174
