Measurement: Infrared, Infrared Data Processed
Mineral: Chalcopyrite
Rruff sample: R050222
Ideal chemistry: Cu^1+^Fe^3+^S^2-^_2_
Locality: Iron Cap mine, Landsman Camp, Graham County, Arizona, USA
Source: Bob Downs
Description: Group of brass yellow metallic tetrahedra, dark streaks represent alteration by bacteria where S is left behind
Measured chemistry: Cu_1.00_Fe_1.00_S_2.00_
x	intensity
50.1401	0.0181304
52.0686	0.0199911
53.9971	0.0163858
55.9255	0.018137
57.854	0.0242715
59.7825	0.0316216
61.7109	0.0233039
63.6394	0.0220468
65.5679	0.0242653
67.4963	0.02359
69.4248	0.0232526
71.3533	0.0241213
73.2817	0.0246164
75.2102	0.0252185
77.1387	0.0274325
79.0671	0.0287435
80.9956	0.0278557
82.9241	0.0285606
84.8525	0.0293785
86.781	0.0299677
88.7095	0.0296659
90.6379	0.0301658
92.5664	0.0310012
94.4948	0.0314833
96.4233	0.0331041
98.3518	0.0341737
100.28	0.0333803
102.209	0.0335531
104.137	0.0340533
106.066	0.0341579
107.994	0.0341593
109.923	0.0344205
111.851	0.0356953
113.779	0.0366222
115.708	0.0367112
117.636	0.0377026
119.565	0.0389938
121.493	0.0404037
123.422	0.0410388
125.35	0.0411588
127.279	0.0417516
129.207	0.0427785
131.136	0.0428059
133.064	0.0427758
134.993	0.0442622
136.921	0.0462635
138.85	0.0465387
140.778	0.0468656
142.707	0.0472096
144.635	0.0472344
146.563	0.0474885
148.492	0.0481141
150.42	0.0490227
152.349	0.0501341
154.277	0.0503983
156.206	0.0504073
158.134	0.0505053
160.063	0.0512425
161.991	0.0519714
163.92	0.0522329
165.848	0.052175
167.777	0.0525172
169.705	0.0533778
171.633	0.0540907
173.562	0.0542307
175.49	0.0541065
177.419	0.0540947
179.347	0.0551475
181.276	0.0559546
183.204	0.0557671
185.133	0.0560424
187.061	0.0565934
188.99	0.0567334
190.918	0.0569124
192.847	0.0570676
194.775	0.0575235
196.704	0.0580942
198.632	0.0584157
200.56	0.0588728
202.489	0.0593812
204.417	0.0597808
206.346	0.0600996
208.274	0.0605278
210.203	0.0609934
212.131	0.0613516
214.06	0.0618357
215.988	0.0623153
217.917	0.0625981
219.845	0.0630843
221.774	0.0634394
223.702	0.0633464
225.631	0.0635631
227.559	0.0641842
229.488	0.0645044
231.416	0.0650117
233.344	0.0652603
235.273	0.0657125
237.201	0.0659338
239.13	0.0659133
241.058	0.0660645
242.987	0.0664255
244.915	0.066775
246.844	0.0670595
248.772	0.06772
250.701	0.0680165
252.629	0.0676092
254.558	0.0680731
256.486	0.0691264
258.414	0.0695908
260.343	0.0694983
262.271	0.0696321
264.2	0.0698266
266.128	0.0699836
268.057	0.0702266
269.985	0.0707688
271.914	0.0713038
273.842	0.0716631
275.771	0.0721336
277.699	0.0727853
279.628	0.0732171
281.556	0.0734314
283.485	0.0737719
285.413	0.0742909
287.341	0.0746596
289.27	0.0750463
291.198	0.0753124
293.127	0.0757983
295.055	0.0764088
296.984	0.0769509
298.912	0.0771058
300.841	0.0770937
302.769	0.0778411
304.698	0.0785063
306.626	0.0785862
308.555	0.0788611
310.483	0.0791104
312.411	0.0793678
314.34	0.0798016
316.269	0.080328
318.197	0.0803498
320.125	0.0802754
322.054	0.0803211
323.982	0.0802246
325.911	0.0799893
327.839	0.0799505
329.768	0.0803013
331.696	0.0808194
333.625	0.0817131
335.553	0.0826174
337.482	0.08326
339.41	0.0841766
341.339	0.0849887
343.267	0.0857704
345.195	0.0863294
347.124	0.0867735
349.052	0.0869469
350.981	0.08707
352.909	0.0872755
354.838	0.0870814
356.766	0.0866571
358.695	0.0869269
360.623	0.0867857
362.552	0.0860336
364.48	0.0854262
366.409	0.0849832
368.337	0.0846375
370.265	0.084512
372.194	0.0846666
374.122	0.0851093
376.051	0.0850715
377.979	0.0847297
379.908	0.0849144
381.836	0.085318
383.765	0.0855779
385.693	0.0862795
387.622	0.0870363
389.55	0.0876423
391.479	0.0884768
393.407	0.0893077
395.336	0.0898241
397.264	0.090399
399.192	0.091256
401.121	0.0919439
403.049	0.0925318
404.978	0.0932217
406.906	0.0938933
408.835	0.0944541
410.763	0.0948493
412.692	0.0953828
414.62	0.0960578
416.549	0.0963297
418.477	0.0967095
420.406	0.0969545
422.334	0.0970717
424.262	0.0976657
426.191	0.0982869
428.12	0.0986699
430.048	0.0994022
431.976	0.100021
433.905	0.100449
435.833	0.100987
437.762	0.101167
439.69	0.101543
441.619	0.101833
443.547	0.101897
445.476	0.101925
447.404	0.102433
449.333	0.102788
451.261	0.103115
453.19	0.10363
455.118	0.103971
457.046	0.103931
458.975	0.104223
460.903	0.104943
462.832	0.105505
464.76	0.105753
466.689	0.106126
468.617	0.106777
470.546	0.106721
472.474	0.106694
474.403	0.107311
476.331	0.107868
478.26	0.108461
480.188	0.109047
482.116	0.108976
484.045	0.108901
485.974	0.109258
487.902	0.109767
489.83	0.110333
491.759	0.110479
493.687	0.110534
495.616	0.11108
497.544	0.111524
499.473	0.11211
501.401	0.11264
503.33	0.112688
505.258	0.112784
507.187	0.113136
509.115	0.112971
511.043	0.112808
512.972	0.113358
514.9	0.114039
516.829	0.114311
518.757	0.114637
520.686	0.114496
522.614	0.114474
524.543	0.114775
526.471	0.115022
528.4	0.115414
530.328	0.115534
532.257	0.115332
534.185	0.115348
536.114	0.115785
538.042	0.116248
539.971	0.116
541.899	0.116285
543.827	0.116596
545.756	0.116308
547.684	0.116801
549.613	0.117763
551.541	0.117943
553.47	0.117794
555.398	0.117876
557.327	0.118137
559.255	0.118412
561.184	0.119027
563.112	0.119594
565.041	0.119682
566.969	0.119956
568.898	0.120347
570.826	0.120849
572.755	0.121554
574.683	0.121701
576.611	0.121836
578.54	0.12257
580.468	0.123053
582.397	0.123119
584.325	0.123355
586.254	0.124017
588.182	0.12442
590.111	0.124423
592.039	0.124967
593.968	0.12546
595.896	0.125514
597.824	0.125406
599.753	0.125212
601.682	0.125545
603.61	0.126214
605.538	0.126299
607.467	0.126517
609.395	0.126602
611.324	0.126363
613.252	0.126983
615.181	0.127156
617.109	0.12713
619.038	0.127064
620.966	0.12671
622.894	0.127211
624.823	0.128589
626.751	0.129047
628.68	0.12947
630.608	0.130097
632.537	0.130237
634.465	0.130592
636.394	0.130945
638.322	0.1312
640.251	0.131449
642.179	0.132066
644.108	0.132562
646.036	0.132725
647.965	0.132976
649.893	0.133457
651.822	0.133553
653.75	0.133857
655.678	0.134267
657.607	0.134549
659.535	0.135031
661.464	0.135257
663.392	0.135073
665.321	0.13528
667.249	0.135781
669.178	0.136052
671.106	0.136291
673.035	0.137042
674.963	0.137205
676.892	0.137224
678.82	0.137692
680.749	0.138235
682.677	0.138984
684.606	0.139115
686.534	0.138756
688.462	0.139281
690.391	0.140789
692.319	0.141894
694.248	0.143251
696.176	0.142969
698.105	0.141969
700.033	0.140993
