Measurement: Infrared, Infrared Data Processed
Mineral: Clinoclase
Rruff sample: R070092
Ideal chemistry: Cu^2+^_3_As^5+^O_4_(OH)_3_
Locality: Majuba Hill, Antelope District, Pershing County, Nevada, USA
Source: James Shigley
Description: Rich area of dark blue-green prismatic crystals
Measured chemistry: (Cu_2.97_Al_0.02_[box]_0.01_)_Σ=3_(As_0.99_P_0.01_)_Σ=1_O_4_(OH)_3_ ; trace amounts of Fe and Zn; OH estimated by difference and charge balance
x	intensity
374.123	0.287555
383.765	0.277819
393.407	0.249992
403.05	0.240195
412.692	0.218382
422.334	0.225897
431.976	0.253883
441.619	0.294766
451.261	0.296213
460.904	0.287433
470.546	0.261543
480.188	0.234556
489.83	0.213618
499.473	0.179665
509.115	0.161213
518.758	0.181693
528.4	0.154069
538.042	0.131682
547.684	0.148888
557.327	0.108238
566.969	0.068136
576.611	0.0610052
586.254	0.0686129
595.896	0.0894162
605.538	0.12682
615.181	0.157451
624.823	0.117527
634.466	0.0720293
644.108	0.0596912
653.75	0.0615098
663.393	0.0697108
673.035	0.0833567
682.677	0.102774
692.319	0.130079
701.962	0.167347
711.604	0.213559
721.246	0.241386
730.889	0.226529
740.531	0.227205
750.173	0.266723
759.816	0.322544
769.458	0.348244
779.101	0.317419
788.743	0.28604
798.385	0.240323
808.028	0.172549
817.67	0.155378
827.312	0.228873
836.955	0.230813
846.597	0.190134
856.239	0.188464
865.881	0.155898
875.524	0.106607
885.166	0.0708298
894.808	0.0495273
904.451	0.0404253
914.093	0.0366567
923.736	0.0368393
933.378	0.0358751
943.02	0.0393691
952.663	0.0432574
962.305	0.0490293
971.947	0.0697917
981.59	0.111033
991.232	0.0981152
1000.87	0.0539204
1010.52	0.0414732
1020.16	0.037062
1029.8	0.0329538
1039.44	0.0357479
1049.09	0.0476151
1058.73	0.0538572
1068.37	0.0729402
1078.01	0.104538
1087.65	0.0822209
1097.3	0.054141
1106.94	0.0772057
1116.58	0.110126
1126.22	0.0391357
1135.87	0.0238595
1145.51	0.0185022
1155.15	0.0169169
1164.79	0.0157533
1174.44	0.0155552
1184.08	0.0155829
1193.72	0.0156505
1203.36	0.0157716
1213.01	0.0159431
1222.65	0.0162964
1232.29	0.0167668
1241.93	0.0172483
1251.58	0.0178394
1261.22	0.0179584
1270.86	0.0192186
1280.5	0.0199664
1290.14	0.0203904
1299.79	0.0208345
1309.43	0.0215553
1319.07	0.0222653
1328.71	0.0238523
1338.36	0.0261699
1348	0.0282051
1357.64	0.0269855
1367.28	0.0262505
1376.92	0.0266483
1386.57	0.0268075
1396.21	0.0275241
1405.85	0.0277171
1415.49	0.0276315
1425.14	0.0283542
1434.78	0.028803
1444.42	0.0295528
1454.06	0.0307201
1463.71	0.0320726
1473.35	0.0315681
1482.99	0.029934
1492.63	0.0298191
1502.28	0.0302914
1511.92	0.0310086
1521.56	0.0318379
1531.2	0.0326761
1540.85	0.0340321
1550.49	0.0351165
1560.13	0.036336
1569.77	0.0368602
1579.41	0.0375149
1589.06	0.0379731
1598.7	0.0379208
1608.34	0.0379989
1617.98	0.0386315
1627.63	0.0392454
1637.27	0.0397065
1646.91	0.039997
1656.55	0.0404667
1666.19	0.0402402
1675.84	0.040081
1685.48	0.0397752
1695.12	0.0394434
1704.77	0.0392962
1714.41	0.0387858
1724.05	0.038015
1733.69	0.0372147
1743.33	0.0360632
1752.98	0.0367475
1762.62	0.0377365
1772.26	0.0379755
1781.9	0.0383945
1791.55	0.0389934
1801.19	0.0391042
1810.83	0.0394315
1820.47	0.0400276
1830.12	0.040335
1839.76	0.0405446
1849.4	0.041271
1859.04	0.0420741
1868.68	0.0417245
1878.33	0.0422897
1887.97	0.0428089
1897.61	0.0433068
1907.25	0.0442677
1916.9	0.0452357
1926.54	0.0471163
1936.18	0.0491671
1945.82	0.0483677
1955.46	0.0461811
1965.11	0.0445283
1974.75	0.0435787
1984.39	0.0468501
1994.04	0.0455449
2003.68	0.0440387
2013.32	0.0469342
2022.96	0.0465107
2032.6	0.0462465
2042.25	0.04903
2051.89	0.0498693
2061.53	0.0483934
2071.17	0.0484263
2080.82	0.0488992
2090.46	0.047532
2100.1	0.0496591
2109.74	0.0494698
2119.39	0.0487486
2129.03	0.0479523
2138.67	0.047907
2148.31	0.0481071
2157.95	0.0462502
2167.6	0.0515552
2177.24	0.0512743
2186.88	0.0547434
2196.52	0.056207
2206.17	0.0581693
2215.81	0.062729
2225.45	0.0582034
2235.09	0.053177
2244.74	0.0532265
2254.38	0.0543368
2264.02	0.0546479
2273.66	0.0557708
2283.3	0.0562715
2292.95	0.055972
2302.59	0.0556684
2312.23	0.0565569
2321.87	0.0577532
2331.52	0.0556878
2341.16	0.0558166
2350.8	0.0556548
2360.44	0.0561597
2370.09	0.0557242
2379.73	0.0557324
2389.37	0.0565137
2399.01	0.0563284
2408.66	0.0575194
2418.3	0.0581295
2427.94	0.0585829
2437.58	0.0594064
2447.22	0.0600871
2456.87	0.0598943
2466.51	0.0600811
2476.15	0.0601708
2485.79	0.0608341
2495.44	0.0604946
2505.08	0.0614898
2514.72	0.0608726
2524.36	0.0624427
2534.01	0.0630233
2543.65	0.0625951
2553.29	0.0632168
2562.93	0.0642312
2572.57	0.0644814
2582.22	0.0652655
2591.86	0.0658544
2601.5	0.0664889
2611.14	0.0668601
2620.79	0.0672539
2630.43	0.0680687
2640.07	0.0686041
2649.71	0.0688018
2659.36	0.068378
2669	0.0680543
2678.64	0.0689718
2688.28	0.0693065
2697.93	0.0695512
2707.57	0.0707765
2717.21	0.0713562
2726.85	0.0719263
2736.49	0.0730514
2746.14	0.0734037
2755.78	0.0742744
2765.42	0.0749882
2775.06	0.0754679
2784.71	0.0761606
2794.35	0.0770419
2803.99	0.0781552
2813.63	0.0786347
2823.28	0.0797884
2832.92	0.0806221
2842.56	0.081826
2852.2	0.0811584
2861.84	0.0826504
2871.49	0.0831537
2881.13	0.0842536
2890.77	0.0855571
2900.41	0.0871796
2910.06	0.0875388
2919.7	0.0878193
2929.34	0.0879762
2938.98	0.08863
2948.62	0.089039
2958.27	0.0905978
2967.91	0.0911913
2977.55	0.0917231
2987.2	0.0932069
2996.84	0.0940758
3006.48	0.0953716
3016.12	0.097824
3025.76	0.0985763
3035.41	0.100043
3045.05	0.101603
3054.69	0.103951
3064.33	0.106132
3073.98	0.107493
3083.62	0.108715
3093.26	0.110516
3102.9	0.113096
3112.55	0.114663
3122.19	0.116718
3131.83	0.118792
3141.47	0.120898
3151.11	0.123718
3160.76	0.12625
3170.4	0.129878
3180.04	0.133662
3189.68	0.137338
3199.33	0.141528
3208.97	0.14745
3218.61	0.151517
3228.25	0.15905
3237.9	0.164983
3247.54	0.171837
3257.18	0.179838
3266.82	0.187353
3276.47	0.195167
3286.11	0.205719
3295.75	0.220812
3305.39	0.243442
3315.03	0.278544
3324.68	0.327216
3334.32	0.375987
3343.96	0.371238
3353.6	0.287692
3363.25	0.205332
3372.89	0.153113
3382.53	0.127149
3392.17	0.111881
3401.82	0.104835
3411.46	0.102006
3421.1	0.0996418
3430.74	0.095838
3440.39	0.0913528
3450.03	0.0888797
3459.67	0.0859246
3469.31	0.0844446
3478.95	0.0836877
3488.6	0.0843883
3498.24	0.0851085
3507.88	0.0863095
3517.52	0.0928258
3527.17	0.10255
3536.81	0.124551
3546.45	0.166507
3556.09	0.187815
3565.74	0.124794
3575.38	0.0805239
3585.02	0.0635095
3594.66	0.0590878
3604.3	0.0569881
3613.95	0.0574524
3623.59	0.058452
3633.23	0.0576421
3642.87	0.0598027
3652.52	0.0598743
3662.16	0.0595059
3671.8	0.0604799
3681.44	0.0618433
3691.09	0.0608386
3700.73	0.0614677
3710.37	0.0629508
3720.01	0.0621154
3729.66	0.06449
3739.3	0.0644955
3748.94	0.0650861
3758.58	0.0651122
3768.22	0.0666082
3777.87	0.0663108
3787.51	0.0669345
3797.15	0.0673858
3806.79	0.0670914
3816.44	0.0682918
3826.08	0.0678563
3835.72	0.0685402
3845.36	0.068969
3855.01	0.0688619
3864.65	0.0696945
3874.29	0.0705408
3883.93	0.0709522
3893.57	0.0708642
3903.22	0.0703231
3912.86	0.0716723
3922.5	0.0719452
3932.14	0.0722105
3941.79	0.0729583
3951.43	0.0732973
3961.07	0.0734604
3970.71	0.0734006
3980.36	0.0736873
3990	0.0742867
3999.64	0.0738381
