Measurement: Infrared, Infrared Data Processed
Mineral: Columbite-(Mn)
Rruff sample: R040083
Ideal chemistry: Mn^2+^Nb^5+^_2_O_6_
Locality: Mina Miramica, Santa Cruz, Bolivia
Source: University of Arizona Mineral Museum
Description: Fragment consisting of multiple phases as shown by both X-ray diffraction and microprobe.
Measured chemistry: Light bands: (Mn^2+^_0.78_Fe^2+^_0.21_Ti_0.01_)(Nb_0.74_Ta_0.25_Ti_0.01_)_2_O_6_; Dark bands:(Mn^2+^_0.73_Fe^2+^_0.26_Ti_0.01_)(Nb_0.86_Ta_0.13_Ti_0.01_)_2_O_6_
x	intensity
374.123	0.244286
383.765	0.257371
393.407	0.259064
403.05	0.258995
412.692	0.273012
422.334	0.28537
431.976	0.296801
441.619	0.301651
451.261	0.300214
460.904	0.305009
470.546	0.303868
480.188	0.304274
489.83	0.296158
499.473	0.289874
509.115	0.285351
518.758	0.281179
528.4	0.273994
538.042	0.269088
547.684	0.264705
557.327	0.260892
566.969	0.255692
576.611	0.250209
586.254	0.244136
595.896	0.239593
605.538	0.23847
615.181	0.24054
624.823	0.241128
634.466	0.236081
644.108	0.232501
653.75	0.230815
663.393	0.231384
673.035	0.233374
682.677	0.234061
692.319	0.232043
701.962	0.222195
711.604	0.206715
721.246	0.188788
730.889	0.172003
740.531	0.157504
750.173	0.145865
759.816	0.138179
769.458	0.133576
779.101	0.129734
788.743	0.125643
798.385	0.12289
808.028	0.117567
817.67	0.114074
827.312	0.111093
836.955	0.105785
846.597	0.0960081
856.239	0.0831392
865.881	0.0716995
875.524	0.0561231
885.166	0.0394503
894.808	0.0319179
904.451	0.0297602
914.093	0.0284942
923.736	0.0270175
933.378	0.0262189
943.02	0.0257709
952.663	0.0262493
962.305	0.0282725
971.947	0.0319313
981.59	0.036958
991.232	0.0413507
1000.87	0.0449476
1010.52	0.0482316
1020.16	0.0510924
1029.8	0.0537996
1039.44	0.053464
1049.09	0.0490889
1058.73	0.0469044
1068.37	0.0461095
1078.01	0.0470238
1087.65	0.0472
1097.3	0.0456652
1106.94	0.0438626
1116.58	0.0418261
1126.22	0.0400525
1135.87	0.0380412
1145.51	0.0370837
1155.15	0.0363017
1164.79	0.0373882
1174.44	0.0374031
1184.08	0.0374319
1193.72	0.0372551
1203.36	0.0368485
1213.01	0.0361445
1222.65	0.0360115
1232.29	0.0369217
1241.93	0.0377585
1251.58	0.0387694
1261.22	0.0397322
1270.86	0.0408649
1280.5	0.0421803
1290.14	0.043248
1299.79	0.0446879
1309.43	0.0461937
1319.07	0.0476784
1328.71	0.0489598
1338.36	0.0504982
1348	0.0520237
1357.64	0.0533435
1367.28	0.0545194
1376.92	0.0561322
1386.57	0.0575247
1396.21	0.0587377
1405.85	0.0601637
1415.49	0.0613442
1425.14	0.0625887
1434.78	0.0639742
1444.42	0.0649095
1454.06	0.0665855
1463.71	0.0674881
1473.35	0.0685949
1482.99	0.0690655
1492.63	0.0704136
1502.28	0.0717453
1511.92	0.073324
1521.56	0.0751959
1531.2	0.0763719
1540.85	0.0787588
1550.49	0.0797135
1560.13	0.0825154
1569.77	0.0835683
1579.41	0.0849961
1589.06	0.0861747
1598.7	0.087378
1608.34	0.0883862
1617.98	0.0894737
1627.63	0.0900635
1637.27	0.0908163
1646.91	0.0914411
1656.55	0.0914627
1666.19	0.0920155
1675.84	0.0927666
1685.48	0.0940119
1695.12	0.0944723
1704.77	0.094675
1714.41	0.0955901
1724.05	0.0960091
1733.69	0.0974032
1743.33	0.0967195
1752.98	0.0973848
1762.62	0.0984409
1772.26	0.0998318
1781.9	0.100501
1791.55	0.101456
1801.19	0.102395
1810.83	0.103088
1820.47	0.104402
1830.12	0.105145
1839.76	0.106116
1849.4	0.107292
1859.04	0.108169
1868.68	0.109639
1878.33	0.110236
1887.97	0.1118
1897.61	0.112387
1907.25	0.113023
1916.9	0.113883
1926.54	0.114024
1936.18	0.115942
1945.82	0.116644
1955.46	0.115736
1965.11	0.118338
1974.75	0.119464
1984.39	0.119871
1994.04	0.120353
2003.68	0.120885
2013.32	0.12116
2022.96	0.123479
2032.6	0.122004
2042.25	0.125016
2051.89	0.125117
2061.53	0.124317
2071.17	0.125615
2080.82	0.12638
2090.46	0.126731
2100.1	0.126879
2109.74	0.128846
2119.39	0.128545
2129.03	0.128584
2138.67	0.130349
2148.31	0.130418
2157.95	0.13076
2167.6	0.133881
2177.24	0.13567
2186.88	0.135384
2196.52	0.136573
2206.17	0.136683
2215.81	0.137922
2225.45	0.137834
2235.09	0.138868
2244.74	0.139748
2254.38	0.139653
2264.02	0.140323
2273.66	0.140816
2283.3	0.142404
2292.95	0.142105
2302.59	0.142324
2312.23	0.143201
2321.87	0.145278
2331.52	0.144815
2341.16	0.145519
2350.8	0.145252
2360.44	0.146869
2370.09	0.14646
2379.73	0.145342
2389.37	0.146488
2399.01	0.146721
2408.66	0.148187
2418.3	0.147691
2427.94	0.148924
2437.58	0.149005
2447.22	0.150167
2456.87	0.150845
2466.51	0.151239
2476.15	0.151938
2485.79	0.151643
2495.44	0.153119
2505.08	0.153776
2514.72	0.154052
2524.36	0.155017
2534.01	0.155337
2543.65	0.15611
2553.29	0.156564
2562.93	0.157059
2572.57	0.158082
2582.22	0.158629
2591.86	0.159064
2601.5	0.159235
2611.14	0.160108
2620.79	0.160149
2630.43	0.16084
2640.07	0.161072
2649.71	0.16129
2659.36	0.161564
2669	0.161665
2678.64	0.162284
2688.28	0.162673
2697.93	0.163218
2707.57	0.163439
2717.21	0.164534
2726.85	0.164376
2736.49	0.165305
2746.14	0.165778
2755.78	0.165934
2765.42	0.167189
2775.06	0.167331
2784.71	0.167962
2794.35	0.1688
2803.99	0.168901
2813.63	0.170075
2823.28	0.170089
2832.92	0.171133
2842.56	0.172151
2852.2	0.172683
2861.84	0.172636
2871.49	0.173269
2881.13	0.174035
2890.77	0.174702
2900.41	0.174896
2910.06	0.175845
2919.7	0.176807
2929.34	0.176914
2938.98	0.176863
2948.62	0.177137
2958.27	0.17859
2967.91	0.17791
2977.55	0.17733
2987.2	0.177294
2996.84	0.178272
3006.48	0.178578
3016.12	0.178202
3025.76	0.179187
3035.41	0.180251
3045.05	0.180282
3054.69	0.180951
3064.33	0.181703
3073.98	0.182059
3083.62	0.182312
3093.26	0.182849
3102.9	0.183936
3112.55	0.18396
3122.19	0.184384
3131.83	0.184778
3141.47	0.185428
3151.11	0.185424
3160.76	0.185587
3170.4	0.186704
3180.04	0.187365
3189.68	0.187225
3199.33	0.187741
3208.97	0.188078
3218.61	0.188449
3228.25	0.18862
3237.9	0.188772
3247.54	0.189644
3257.18	0.189947
3266.82	0.189569
3276.47	0.190364
3286.11	0.190915
3295.75	0.190975
3305.39	0.191928
3315.03	0.192138
3324.68	0.192055
3334.32	0.191412
3343.96	0.192336
3353.6	0.193143
3363.25	0.192791
3372.89	0.193341
3382.53	0.192471
3392.17	0.192828
3401.82	0.193274
3411.46	0.19363
3421.1	0.193568
3430.74	0.192963
3440.39	0.193655
3450.03	0.19464
3459.67	0.194125
3469.31	0.193998
3478.95	0.194461
3488.6	0.193229
3498.24	0.193984
3507.88	0.193305
3517.52	0.193969
3527.17	0.193566
3536.81	0.193493
3546.45	0.194338
3556.09	0.194019
3565.74	0.193783
3575.38	0.193781
3585.02	0.195084
3594.66	0.194264
3604.3	0.194192
3613.95	0.19511
3623.59	0.195209
3633.23	0.195765
3642.87	0.195298
3652.52	0.195215
3662.16	0.193866
3671.8	0.195679
3681.44	0.196359
3691.09	0.196686
3700.73	0.195827
3710.37	0.197615
3720.01	0.195977
3729.66	0.197373
3739.3	0.197203
3748.94	0.199427
3758.58	0.197398
3768.22	0.198252
3777.87	0.197074
3787.51	0.197905
3797.15	0.199169
3806.79	0.20098
3816.44	0.200267
3826.08	0.199442
3835.72	0.201315
3845.36	0.200054
3855.01	0.202011
3864.65	0.201932
3874.29	0.202007
3883.93	0.20187
3893.57	0.201886
3903.22	0.20239
3912.86	0.202925
3922.5	0.203007
3932.14	0.203058
3941.79	0.202122
3951.43	0.203595
3961.07	0.203595
3970.71	0.20424
3980.36	0.204259
3990	0.204441
3999.64	0.204237
