Measurement: Infrared, Infrared Data Processed
Mineral: Columbite-(Fe)
Rruff sample: R060001
Ideal chemistry: Fe^2+^Nb^5+^_2_O_6_
Locality: Gypsy mine, Minas Gerais, Brazil
Source: Eric Van Valkenburg
Description: Steel gray fragment with internal red hints
Measured chemistry: (Fe^2+^_0.52_Mn^2+^_0.48_)_Σ=1_(Nb_1.61_Ta_0.39_)_Σ=2_O_6_
x	intensity
399.193	0.267867
408.835	0.286537
418.477	0.298604
428.12	0.319322
437.762	0.333322
447.404	0.337971
457.047	0.337913
466.689	0.334254
476.331	0.341113
485.974	0.339988
495.616	0.335141
505.258	0.329029
514.901	0.32054
524.543	0.315981
534.185	0.310209
543.828	0.305754
553.47	0.302519
563.112	0.292731
572.755	0.283557
582.397	0.273575
592.039	0.265669
601.682	0.262487
611.324	0.267848
620.966	0.272272
630.609	0.267528
640.251	0.260862
649.893	0.25729
659.536	0.256388
669.178	0.25564
678.82	0.253616
688.463	0.248022
698.105	0.23773
707.747	0.221477
717.39	0.201364
727.032	0.181117
736.674	0.16365
746.317	0.150801
755.959	0.143572
765.601	0.140134
775.244	0.137517
784.886	0.134877
794.528	0.131891
804.171	0.129426
813.813	0.128239
823.455	0.128668
833.098	0.127553
842.74	0.120167
852.382	0.102675
862.025	0.0857532
871.667	0.0648339
881.309	0.0375027
890.952	0.0203628
900.594	0.0150884
910.236	0.012979
919.879	0.0101466
929.521	0.00744949
939.163	0.00560117
948.806	0.00395454
958.448	0.00280308
968.09	0.0022854
977.733	0.00182243
987.375	0.00141415
997.017	0.00126628
1006.66	0.00100339
1016.3	0.000648892
1025.94	4.16376e-05
1035.59	-0.000120187
1045.23	-0.000435077
1054.87	-0.000510396
1064.51	-0.000584299
1074.16	-0.000603547
1083.8	-0.000122195
1093.44	-0.000182036
1103.08	-6.3926e-06
1112.72	-0.000366433
1122.37	-0.00184075
1132.01	-0.00422246
1141.65	-0.00480681
1151.3	-0.00110936
1160.94	-0.000731226
1170.58	-0.000958685
1180.22	-0.000808943
1189.86	-0.000147454
1199.51	6.35609e-05
1209.15	0.000307847
1218.79	0.000413913
1228.43	0.000391945
1238.08	0.000126369
1247.72	0.000116337
1257.36	-0.000239517
1267	-0.000283398
1276.64	0.000330143
1286.29	-4.39845e-05
1295.93	-0.000623092
1305.57	-0.000660196
1315.21	-0.000498049
1324.86	-0.000721566
1334.5	-0.000326022
1344.14	-0.000337839
1353.78	-0.000351086
1363.43	0.000175655
1373.07	0.00045786
1382.71	0.00072372
1392.35	0.000639014
1401.99	0.000169084
1411.64	0.00037308
1421.28	-9.59039e-05
1430.92	-0.000137478
1440.57	0.000337966
1450.21	-1.16006e-05
1459.85	-0.000413217
1469.49	-0.000662915
1479.13	-0.000686251
1488.78	-0.000768177
1498.42	-0.000820212
1508.06	-0.000874177
1517.7	-0.000546716
1527.35	-0.000229552
1536.99	-0.000292487
1546.63	-0.000177965
1556.27	-0.000621103
1565.91	-2.85432e-05
1575.56	-0.000727847
1585.2	0.000173971
1594.84	0.000328995
1604.48	0.000176139
1614.13	-9.35197e-05
1623.77	-0.000355847
1633.41	-0.00044734
1643.05	-0.00055512
1652.7	-0.00251552
1662.34	-0.00143824
1671.98	-0.00118746
1681.62	-0.0013518
1691.27	-0.000722013
1700.91	-0.00182221
1710.55	-0.000651814
1720.19	-0.000336781
1729.84	-7.31498e-05
1739.48	-0.000777826
1749.12	-0.00124687
1758.76	-0.000427365
1768.4	-0.000496879
1778.05	-0.000171423
1787.69	0.000247061
1797.33	-0.000136718
1806.97	4.06951e-05
1816.62	-0.000256658
1826.26	-0.000553727
1835.9	-0.000785053
1845.54	-0.00131617
1855.18	-0.000616759
1864.83	-0.000622302
1874.47	-0.000132561
1884.11	-0.000550806
1893.75	-0.00106177
1903.4	-0.000292286
1913.04	-0.000607952
1922.68	-0.00203219
1932.32	-0.000926986
1941.97	-0.0028878
1951.61	-0.00208107
1961.25	-0.00575717
1970.89	-0.00500906
1980.54	-0.00265011
1990.18	-0.00423494
1999.82	-0.00484876
2009.46	-0.00571777
2019.11	-0.00694351
2028.75	-0.00685562
2038.39	-0.0040541
2048.03	-0.00561763
2057.67	-0.00317021
2067.32	-0.00298014
2076.96	-0.00389495
2086.6	-0.00335208
2096.24	-0.00346574
2105.89	-0.0031599
2115.53	-0.00328378
2125.17	-0.00411004
2134.81	-0.00683138
2144.45	-0.00873768
2154.1	-0.00997348
2163.74	-0.00552096
2173.38	-0.00693604
2183.02	-0.00406212
2192.67	-0.00478353
2202.31	-0.00543724
2211.95	-0.00358044
2221.59	-0.00281936
2231.24	-0.00374557
2240.88	-0.00299825
2250.52	-0.00268611
2260.16	-0.00340904
2269.8	-0.00214998
2279.45	-0.00141938
2289.09	-0.000290483
2298.73	-0.000531584
2308.38	-0.000326529
2318.02	-0.000525683
2327.66	-0.000583678
2337.3	-0.000617236
2346.94	-0.000888363
2356.59	0.00023438
2366.23	-0.000135243
2375.87	-0.000376865
2385.51	-0.000556588
2395.16	-0.000444397
2404.8	0.000682324
2414.44	0.000956103
2424.08	0.000326917
2433.72	-0.000819564
2443.37	-0.000441372
2453.01	-0.00077033
2462.65	-0.000298828
2472.29	-0.000485182
2481.94	-0.000647709
2491.58	-0.000213429
2501.22	-0.000206053
2510.86	-0.000439882
2520.51	0.000287339
2530.15	0.000152305
2539.79	-0.00101335
2549.43	-0.000237346
2559.07	-0.000309765
2568.72	-0.000704586
2578.36	-0.000715136
2588	-0.00181566
2597.64	-0.000851616
2607.29	-0.00131902
2616.93	-0.000561729
2626.57	-0.000848412
2636.21	8.44151e-05
2645.86	-0.000429243
2655.5	0.000681415
2665.14	-5.79655e-06
2674.78	1.42753e-05
2684.43	-0.000305876
2694.07	2.40952e-05
2703.71	-5.503e-05
2713.35	0.000529006
2722.99	0.0003483
2732.64	-0.000531212
2742.28	-7.14064e-05
2751.92	-0.000345543
2761.56	-4.74453e-05
2771.21	1.3724e-05
2780.85	-0.000718221
2790.49	-0.000331193
2800.13	-0.000687912
2809.78	-0.000735164
2819.42	-0.000129983
2829.06	-0.000115633
2838.7	-0.000672296
2848.34	0.000297099
2857.99	9.54866e-05
2867.63	-0.000559255
2877.27	-0.000370219
2886.91	-0.000970468
2896.56	-0.00100273
2906.2	-0.000222832
2915.84	-0.000501901
2925.48	-0.00124155
2935.13	-0.00118481
2944.77	-0.000188097
2954.41	0.00067243
2964.05	0.00132698
2973.7	-0.000914171
2983.34	-0.000808865
2992.98	-0.00103718
3002.62	-0.00082621
3012.26	-0.000224605
3021.91	0.00122489
3031.55	2.75821e-05
3041.19	-2.06977e-05
3050.83	0.000269517
3060.48	0.000149518
3070.12	0.000103414
3079.76	0.000646919
3089.4	-0.000680178
3099.05	-0.00114615
3108.69	-0.000742808
3118.33	-0.000637665
3127.97	0.000677586
3137.61	-0.00035876
3147.26	-0.000778943
3156.9	0.000239044
3166.54	0.00109436
3176.18	0.000223279
3185.83	0.000245303
3195.47	0.000223383
3205.11	-0.000138417
3214.75	-0.000722274
3224.4	0.000331342
3234.04	-0.000180811
3243.68	-0.00181247
3253.32	0.000616029
3262.97	-0.000282228
3272.61	-0.000922725
3282.25	-0.00149864
3291.89	-0.00150308
3301.53	-0.00246273
3311.18	-0.000930011
3320.82	-0.00100997
3330.46	-0.000462308
3340.1	0.000848636
3349.75	0.000374094
3359.39	0.000165314
3369.03	-0.000570521
3378.67	-0.000275329
3388.32	-0.000288233
3397.96	0.000498414
3407.6	-0.000326052
3417.24	-0.000586972
3426.89	0.000484303
3436.53	0.000574082
3446.17	0.000844047
3455.81	-0.00141951
3465.45	0.000249177
3475.1	-0.000315368
3484.74	-0.00141118
3494.38	-0.000600755
3504.02	-0.000987202
3513.67	-0.00109783
3523.31	-0.00078766
3532.95	-0.000695169
3542.59	0.000805661
3552.24	0.00124554
3561.88	-0.000156552
3571.52	0.000559762
3581.16	-0.00100976
3590.8	0.00124793
3600.45	0.000421613
3610.09	0.00211978
3619.73	-0.00065285
3629.38	-0.00210445
3639.02	0.00146946
3648.66	-0.00137469
3658.3	-0.000474453
3667.94	-3.44217e-05
3677.59	-0.00263745
3687.23	-0.00101829
3696.87	0.000485301
3706.51	0.000103384
3716.16	0.0012255
3725.8	-0.000933111
3735.44	-6.01411e-05
3745.08	-0.00280008
3754.72	0.000725627
3764.37	-0.000244886
3774.01	0.00056994
3783.65	-0.000258833
3793.29	-0.00139141
3802.94	0.000247061
3812.58	0.000702888
3822.22	-0.00231242
3831.86	0.000343114
3841.51	-0.00286138
3851.15	-0.00200838
3860.79	-0.000440359
3870.43	-0.000746071
3880.07	-0.00146601
3889.72	0.00135011
3899.36	-0.00151187
3909	0.00147569
3918.64	0.00112155
3928.29	-0.000626445
3937.93	-0.00121486
3947.57	-0.000680953
3957.21	0.00211412
3966.86	-0.00195703
3976.5	-0.00160822
3986.14	-0.000788063
3995.78	-0.00082007
