Measurement: Infrared, Infrared Data Processed
Mineral: Cuprite
Rruff sample: R050384
Ideal chemistry: Cu^1+^_2_O
Locality: Lavender Pit, Bisbee, Warren District, Cochise County, Arizona, USA
Source: University of Arizona Mineral Museum
Description: Deep red to nearly black cubes
Measured chemistry: Cu_2.00_O
x	intensity
399.193	0.31528
408.835	0.32609
418.477	0.328839
428.12	0.339873
437.762	0.345239
447.404	0.358665
457.047	0.362536
466.689	0.362601
476.331	0.376244
485.974	0.388436
495.616	0.395048
505.258	0.411771
514.901	0.418787
524.543	0.423666
534.185	0.43157
543.828	0.444617
553.47	0.459573
563.112	0.472272
572.755	0.48844
582.397	0.495894
592.039	0.503928
601.682	0.496042
611.324	0.458771
620.966	0.398401
630.609	0.331787
640.251	0.25122
649.893	0.174682
659.536	0.116019
669.178	0.0872846
678.82	0.089044
688.463	0.111726
698.105	0.130536
707.747	0.138273
717.39	0.154135
727.032	0.181686
736.674	0.202615
746.317	0.225385
755.959	0.250169
765.601	0.273031
775.244	0.290399
784.886	0.304631
794.528	0.317011
804.171	0.329114
813.813	0.341064
823.455	0.353266
833.098	0.358773
842.74	0.362762
852.382	0.371777
862.025	0.382584
871.667	0.39388
881.309	0.398166
890.952	0.374626
900.594	0.385726
910.236	0.394517
919.879	0.404597
929.521	0.403949
939.163	0.405095
948.806	0.411276
958.448	0.416541
968.09	0.422847
977.733	0.43283
987.375	0.439188
997.017	0.434108
1006.66	0.436835
1016.3	0.442281
1025.94	0.44751
1035.59	0.453183
1045.23	0.459559
1054.87	0.464546
1064.51	0.469447
1074.16	0.475687
1083.8	0.481352
1093.44	0.485953
1103.08	0.491419
1112.72	0.494985
1122.37	0.496072
1132.01	0.497928
1141.65	0.499858
1151.3	0.500567
1160.94	0.500298
1170.58	0.501367
1180.22	0.504212
1189.86	0.508152
1199.51	0.511498
1209.15	0.515479
1218.79	0.519008
1228.43	0.523162
1238.08	0.527045
1247.72	0.531763
1257.36	0.536896
1267	0.542879
1276.64	0.551416
1286.29	0.551633
1295.93	0.555387
1305.57	0.561775
1315.21	0.568954
1324.86	0.575693
1334.5	0.585482
1344.14	0.594943
1353.78	0.604553
1363.43	0.614207
1373.07	0.622606
1382.71	0.629334
1392.35	0.636858
1401.99	0.645679
1411.64	0.654632
1421.28	0.664372
1430.92	0.670354
1440.57	0.665853
1450.21	0.663015
1459.85	0.653384
1469.49	0.639335
1479.13	0.627039
1488.78	0.615402
1498.42	0.6039
1508.06	0.593062
1517.7	0.586774
1527.35	0.584308
1536.99	0.583866
1546.63	0.585172
1556.27	0.585663
1565.91	0.585443
1575.56	0.587539
1585.2	0.591279
1594.84	0.594958
1604.48	0.595856
1614.13	0.599042
1623.77	0.601726
1633.41	0.604524
1643.05	0.607875
1652.7	0.610279
1662.34	0.612847
1671.98	0.614705
1681.62	0.616999
1691.27	0.618513
1700.91	0.621484
1710.55	0.626588
1720.19	0.631162
1729.84	0.635859
1739.48	0.635143
1749.12	0.635263
1758.76	0.636703
1768.4	0.639106
1778.05	0.641837
1787.69	0.645611
1797.33	0.64638
1806.97	0.647983
1816.62	0.650089
1826.26	0.651477
1835.9	0.654093
1845.54	0.655748
1855.18	0.660715
1864.83	0.657785
1874.47	0.661547
1884.11	0.665461
1893.75	0.666794
1903.4	0.66681
1913.04	0.669307
1922.68	0.669543
1932.32	0.669253
1941.97	0.669707
1951.61	0.66399
1961.25	0.666115
1970.89	0.656774
1980.54	0.669218
1990.18	0.669496
1999.82	0.668399
2009.46	0.662
2019.11	0.666942
2028.75	0.669357
2038.39	0.674149
2048.03	0.684027
2057.67	0.694724
2067.32	0.699187
2076.96	0.701221
2086.6	0.704079
2096.24	0.706092
2105.89	0.711703
2115.53	0.715606
2125.17	0.712705
2134.81	0.707428
2144.45	0.703975
2154.1	0.698857
2163.74	0.701512
2173.38	0.706916
2183.02	0.712048
2192.67	0.718924
2202.31	0.722509
2211.95	0.727072
2221.59	0.730043
2231.24	0.732472
2240.88	0.739743
2250.52	0.743121
2260.16	0.74875
2269.8	0.751363
2279.45	0.754844
2289.09	0.759637
2298.73	0.767281
2308.38	0.769229
2318.02	0.772364
2327.66	0.775767
2337.3	0.777462
2346.94	0.776275
2356.59	0.78095
2366.23	0.783577
2375.87	0.782567
2385.51	0.780164
2395.16	0.784303
2404.8	0.783766
2414.44	0.787068
2424.08	0.788285
2433.72	0.79251
2443.37	0.793245
2453.01	0.797063
2462.65	0.798609
2472.29	0.803845
2481.94	0.803506
2491.58	0.805909
2501.22	0.80802
2510.86	0.812987
2520.51	0.813457
2530.15	0.815505
2539.79	0.815597
2549.43	0.815608
2559.07	0.819545
2568.72	0.820917
2578.36	0.826121
2588	0.827757
2597.64	0.829033
2607.29	0.832535
2616.93	0.837824
2626.57	0.839436
2636.21	0.840446
2645.86	0.841992
2655.5	0.846498
2665.14	0.847882
2674.78	0.850952
2684.43	0.854467
2694.07	0.853888
2703.71	0.856962
2713.35	0.856884
2722.99	0.860411
2732.64	0.861915
2742.28	0.867948
2751.92	0.866915
2761.56	0.868672
2771.21	0.871097
2780.85	0.873874
2790.49	0.87606
2800.13	0.877655
2809.78	0.881622
2819.42	0.882508
2829.06	0.887244
2838.7	0.890585
2848.34	0.893177
2857.99	0.889225
2867.63	0.892315
2877.27	0.895502
2886.91	0.899563
2896.56	0.901034
2906.2	0.906069
2915.84	0.906913
2925.48	0.902549
2935.13	0.897536
2944.77	0.901687
2954.41	0.90674
2964.05	0.905441
2973.7	0.909013
2983.34	0.907263
2992.98	0.9129
3002.62	0.913091
3012.26	0.9164
3021.91	0.91377
3031.55	0.918337
3041.19	0.923802
3050.83	0.925523
3060.48	0.927476
3070.12	0.930797
3079.76	0.934371
3089.4	0.9314
3099.05	0.935616
3108.69	0.939871
3118.33	0.941931
3127.97	0.943201
3137.61	0.94702
3147.26	0.949289
3156.9	0.955005
3166.54	0.953705
3176.18	0.956844
3185.83	0.961606
3195.47	0.960403
3205.11	0.965797
3214.75	0.969164
3224.4	0.970788
3234.04	0.968554
3243.68	0.976874
3253.32	0.981583
3262.97	0.989757
3272.61	0.989862
3282.25	0.99534
3291.89	1.0107
3301.53	1.01699
3311.18	1.02857
3320.82	1.0132
3330.46	0.998576
3340.1	1.00274
3349.75	1.00935
3359.39	1.01022
3369.03	0.998745
3378.67	0.992186
3388.32	0.986992
3397.96	0.990296
3407.6	0.989713
3417.24	1.0043
3426.89	1.00782
3436.53	1.02033
3446.17	1.02276
3455.81	1.00557
3465.45	0.990143
3475.1	0.984092
3484.74	0.988606
3494.38	0.99152
3504.02	0.983396
3513.67	0.990101
3523.31	0.988918
3532.95	0.982162
3542.59	0.988302
3552.24	0.987082
3561.88	0.987325
3571.52	0.989314
3581.16	0.987446
3590.8	0.987469
3600.45	0.991888
3610.09	0.993919
3619.73	0.993698
3629.37	0.994812
3639.02	0.990484
3648.66	0.993424
3658.3	0.995311
3667.94	1.00539
3677.59	1.00743
3687.23	1.00806
3696.87	1.0128
3706.51	1.01735
3716.16	1.01031
3725.8	1.01606
3735.44	1.01684
3745.08	1.02452
3754.72	1.02864
3764.37	1.03143
3774.01	1.03013
3783.65	1.02897
3793.29	1.02853
3802.94	1.03706
3812.58	1.03347
3822.22	1.0433
3831.86	1.0335
3841.51	1.04133
3851.15	1.047
3860.79	1.04333
3870.43	1.05
3880.07	1.04295
3889.72	1.04117
3899.36	1.06109
3909	1.05838
3918.64	1.05994
3928.29	1.05966
3937.93	1.06224
3947.57	1.0618
3957.21	1.05989
3966.86	1.06027
3976.5	1.06719
3986.14	1.08062
3995.78	1.06616
