Measurement: Infrared, Infrared Data Processed
Mineral: Danburite
Rruff sample: R050602
Ideal chemistry: CaB_2_Si_2_O_8_
Locality: Mogok, Burma
Source: Bill Larson
Description: Yellowish brown fragment
Measured chemistry: Ca_1.00_B_2.00_(Si_1.00_O_4_)_2_
x	intensity
399.193	0.111776
408.835	0.194642
418.477	0.197348
428.12	0.140827
437.762	0.11843
447.404	0.0653269
457.047	0.0780947
466.689	0.0929306
476.331	0.172825
485.974	0.111194
495.616	0.0376226
505.258	0.0468519
514.901	0.0864752
524.543	0.140032
534.185	0.0575779
543.828	0.0519597
553.47	0.0649872
563.112	0.0814311
572.755	0.100819
582.397	0.128893
592.039	0.164936
601.682	0.21439
611.324	0.280887
620.966	0.200489
630.609	0.0840648
640.251	0.094827
649.893	0.15104
659.536	0.15813
669.178	0.0936693
678.82	0.0827632
688.463	0.12324
698.105	0.174004
707.747	0.0758385
717.39	0.0576181
727.032	0.0665604
736.674	0.084077
746.317	0.113627
755.959	0.1008
765.601	0.116475
775.244	0.137875
784.886	0.157241
794.528	0.179321
804.171	0.202009
813.813	0.232304
823.455	0.207512
833.098	0.241416
842.74	0.268597
852.382	0.294951
862.025	0.317182
871.667	0.313923
881.309	0.279832
890.952	0.247386
900.594	0.272786
910.236	0.314281
919.879	0.338279
929.521	0.343504
939.163	0.33234
948.806	0.31071
958.448	0.292093
968.09	0.292
977.733	0.227315
987.375	0.207471
997.017	0.209676
1006.66	0.208081
1016.3	0.197112
1025.94	0.186155
1035.59	0.167404
1045.23	0.139879
1054.87	0.0921086
1064.51	0.0764395
1074.16	0.0958513
1083.8	0.156066
1093.44	0.198422
1103.08	0.192003
1112.72	0.169496
1122.37	0.170542
1132.01	0.185375
1141.65	0.157683
1151.3	0.12039
1160.94	0.0930053
1170.58	0.071658
1180.22	0.0541777
1189.86	0.0402142
1199.51	0.0285925
1209.15	0.019829
1218.79	0.0148506
1228.43	0.0118811
1238.08	0.00999995
1247.72	0.00885762
1257.36	0.00799483
1267	0.00701585
1276.64	0.00682762
1286.29	0.00661393
1295.93	0.00655928
1305.57	0.00634467
1315.21	0.00651705
1324.86	0.00602472
1334.5	0.00629247
1344.14	0.00589787
1353.78	0.0055547
1363.43	0.00561761
1373.07	0.00549826
1382.71	0.00546239
1392.35	0.00531535
1401.99	0.00534246
1411.64	0.00557265
1421.28	0.00557617
1430.92	0.00577223
1440.57	0.00534943
1450.21	0.00494262
1459.85	0.00475044
1469.49	0.00445494
1479.13	0.00471291
1488.78	0.00419015
1498.42	0.00425982
1508.06	0.00391911
1517.7	0.00390365
1527.35	0.00378582
1536.99	0.00416783
1546.63	0.00446321
1556.27	0.00425479
1565.91	0.00464188
1575.56	0.00484783
1585.2	0.00479234
1594.84	0.00463117
1604.48	0.00432754
1614.13	0.00424318
1623.77	0.00458059
1633.41	0.00458535
1643.05	0.00428006
1652.7	0.004645
1662.34	0.00417616
1671.98	0.0044185
1681.62	0.00412743
1691.27	0.00380476
1700.91	0.00399178
1710.55	0.00434465
1720.19	0.00357787
1729.84	0.00369233
1739.48	0.00269675
1749.12	0.00276946
1758.76	0.00286766
1768.4	0.00414193
1778.05	0.00399294
1787.69	0.00394148
1797.33	0.00352137
1806.97	0.00371686
1816.62	0.00406667
1826.26	0.00338246
1835.9	0.00380099
1845.54	0.0043274
1855.18	0.00318637
1864.83	0.00351403
1874.47	0.00320203
1884.11	0.00313001
1893.75	0.00292938
1903.4	0.00302202
1913.04	0.00165909
1922.68	0.00145166
1932.32	0.00132388
1941.97	-0.000227108
1951.61	0.000440545
1961.25	0.00189125
1970.89	-0.0025025
1980.54	-0.000605292
1990.18	-0.000869675
1999.82	-0.00186771
2009.46	-0.00308877
2019.11	-0.000962312
2028.75	-0.00289936
2038.39	-0.00106082
2048.03	0.00124514
2057.67	0.000541915
2067.32	0.0035545
2076.96	0.0031029
2086.6	0.0038893
2096.24	0.00165374
2105.89	0.0051028
2115.53	0.00424851
2125.17	0.00521191
2134.81	0.00183803
2144.45	-0.00197081
2154.1	-0.00187184
2163.74	0.00473313
2173.38	-0.00217013
2183.02	-0.000255299
2192.67	-0.00077263
2202.31	-0.00136192
2211.95	-0.000455175
2221.59	-0.00111624
2231.24	-0.000527198
2240.88	0.0021167
2250.52	-0.00119446
2260.16	0.00383112
2269.8	0.00296546
2279.45	0.00638235
2289.09	0.00755858
2298.73	0.00638766
2308.38	0.00612745
2318.02	0.00707429
2327.66	0.00704718
2337.3	0.00740326
2346.94	0.00670823
2356.59	0.00803735
2366.23	0.00670337
2375.87	0.00675311
2385.51	0.00645326
2395.16	0.00775408
2404.8	0.00749394
2414.44	0.00989472
2424.08	0.00845174
2433.72	0.00731787
2443.37	0.00771084
2453.01	0.00885702
2462.65	0.00949091
2472.29	0.00829287
2481.94	0.00919691
2491.58	0.00862324
2501.22	0.00832234
2510.86	0.00909334
2520.51	0.0103812
2530.15	0.00730429
2539.79	0.00936172
2549.43	0.0089145
2559.07	0.00971966
2568.72	0.00915715
2578.36	0.00997545
2588	0.0108634
2597.64	0.0103046
2607.29	0.00992962
2616.93	0.00941382
2626.57	0.0101232
2636.21	0.0110958
2645.86	0.0110381
2655.5	0.0105085
2665.14	0.0106572
2674.78	0.00987933
2684.43	0.0103826
2694.07	0.00997045
2703.71	0.0107359
2713.35	0.00977935
2722.99	0.00950301
2732.64	0.00917326
2742.28	0.00983285
2751.92	0.0117337
2761.56	0.0104578
2771.21	0.0109087
2780.85	0.0106528
2790.49	0.010729
2800.13	0.0109345
2809.78	0.00976899
2819.42	0.00952709
2829.06	0.0108648
2838.7	0.01021
2848.34	0.00868908
2857.99	0.0102562
2867.63	0.00804386
2877.27	0.0109778
2886.91	0.0108409
2896.56	0.00854846
2906.2	0.00779718
2915.84	0.00691386
2925.48	0.00641326
2935.13	0.00662022
2944.77	0.00963191
2954.41	0.0107767
2964.05	0.010148
2973.7	0.010148
2983.34	0.0111855
2992.98	0.00998855
3002.62	0.011442
3012.26	0.0119088
3021.91	0.0118861
3031.55	0.01309
3041.19	0.0118366
3050.83	0.0102776
3060.48	0.0129714
3070.12	0.0134679
3079.76	0.0103879
3089.4	0.0110614
3099.05	0.0116231
3108.69	0.0130373
3118.33	0.0116931
3127.97	0.0141215
3137.61	0.0120398
3147.26	0.0113028
3156.9	0.0143527
3166.54	0.0133674
3176.18	0.0115319
3185.83	0.0127426
3195.47	0.0157278
3205.11	0.0135346
3214.75	0.0134373
3224.4	0.0136153
3234.04	0.0152874
3243.68	0.0150443
3253.32	0.0151795
3262.97	0.0151549
3272.61	0.0160795
3282.25	0.0124096
3291.89	0.0168064
3301.53	0.0145585
3311.18	0.0150647
3320.82	0.0155275
3330.46	0.0144519
3340.1	0.0170206
3349.75	0.0144201
3359.39	0.0173204
3369.03	0.016161
3378.67	0.0156667
3388.32	0.0167384
3397.96	0.0157408
3407.6	0.0141081
3417.24	0.0149745
3426.89	0.0162057
3436.53	0.0163361
3446.17	0.0156221
3455.81	0.0132558
3465.45	0.0167998
3475.1	0.013788
3484.74	0.0156167
3494.38	0.014891
3504.02	0.016032
3513.67	0.0145806
3523.31	0.0174096
3532.95	0.0174127
3542.59	0.0160061
3552.24	0.0168719
3561.88	0.018822
3571.52	0.0196146
3581.16	0.0130379
3590.8	0.0166915
3600.45	0.0142147
3610.09	0.0163015
3619.73	0.0170545
3629.37	0.0165008
3639.02	0.0162541
3648.66	0.0185926
3658.3	0.0128312
3667.94	0.0176419
3677.59	0.0130407
3687.23	0.0165739
3696.87	0.0131164
3706.51	0.0157639
3716.16	0.0177136
3725.8	0.0130179
3735.44	0.018111
3745.08	0.0166959
3754.72	0.0169979
3764.37	0.0166956
3774.01	0.0125557
3783.65	0.0179635
3793.29	0.0173742
3802.94	0.0178521
3812.58	0.0129581
3822.22	0.0234476
3831.86	0.0166049
3841.51	0.0234399
3851.15	0.0160703
3860.79	0.0100707
3870.43	0.0140821
3880.07	0.0195393
3889.72	0.0158494
3899.36	0.0155619
3909	0.0147575
3918.64	0.0205159
3928.29	0.0146005
3937.93	0.0171211
3947.57	0.0215966
3957.21	0.0205249
3966.86	0.0169273
3976.5	0.0123314
3986.14	0.0191609
3995.78	0.0154392
