Measurement: Infrared, Infrared Data Processed
Mineral: Datolite
Rruff sample: R050136
Ideal chemistry: CaB(SiO_4_)(OH)
Locality: Charcas, San Luis Potosi, Mexico
Source: Dave Bunk Minerals
Description: Pale green tabular crystals
Measured chemistry: Ca_1.00_BSi_1.00_O_4_(OH) ; trace amounts of Fe; B and OH estimated by stoichiometry end charge balance
x	intensity
399.193	0
408.835	0.104172
418.477	0.212348
428.12	0.107595
437.762	0.13434
447.404	0.202216
457.047	0.221953
466.689	0.275109
476.331	0.246089
485.974	0.293358
495.616	0.302914
505.258	0.243996
514.901	0.207781
524.543	0.184849
534.185	0.148343
543.828	0.0967478
553.47	0.0619121
563.112	0.0703901
572.755	0.143754
582.397	0.0772867
592.039	0.072459
601.682	0.0846028
611.324	0.0986851
620.966	0.102671
630.609	0.0983807
640.251	0.115046
649.893	0.127553
659.536	0.132984
669.178	0.140334
678.82	0.162052
688.463	0.203803
698.105	0.137884
707.747	0.105663
717.39	0.104921
727.032	0.107341
736.674	0.110212
746.317	0.116218
755.959	0.128878
765.601	0.157646
775.244	0.229822
784.886	0.28872
794.528	0.150501
804.171	0.112417
813.813	0.128211
823.455	0.158974
833.098	0.210854
842.74	0.311371
852.382	0.331558
862.025	0.2942
871.667	0.388182
881.309	0.384935
890.952	0.297004
900.594	0.318116
910.236	0.423462
919.879	0.394936
929.521	0.35377
939.163	0.342957
948.806	0.295211
958.448	0.233007
968.09	0.242934
977.733	0.257246
987.375	0.291974
997.017	0.273406
1006.66	0.267433
1016.3	0.23281
1025.94	0.214312
1035.59	0.307874
1045.23	0.266241
1054.87	0.211195
1064.51	0.17425
1074.16	0.163472
1083.8	0.162529
1093.44	0.169683
1103.08	0.160474
1112.72	0.143417
1122.37	0.123937
1132.01	0.105121
1141.65	0.094962
1151.3	0.105324
1160.94	0.0968674
1170.58	0.0683016
1180.22	0.0422182
1189.86	0.0267621
1199.51	0.0199842
1209.15	0.0166348
1218.79	0.014219
1228.43	0.0124421
1238.08	0.0107448
1247.72	0.00963904
1257.36	0.0084199
1267	0.00719246
1276.64	0.00695823
1286.29	0.0061925
1295.93	0.00591392
1305.57	0.00542141
1315.21	0.00564187
1324.86	0.00573764
1334.5	0.00630175
1344.14	0.00711554
1353.78	0.00761828
1363.43	0.0077537
1373.07	0.00812092
1382.71	0.0083058
1392.35	0.00881095
1401.99	0.00951592
1411.64	0.0103201
1421.28	0.0108821
1430.92	0.0108397
1440.57	0.0105042
1450.21	0.0103512
1459.85	0.00958155
1469.49	0.00879331
1479.13	0.00749517
1488.78	0.00660597
1498.42	0.00603202
1508.06	0.00481946
1517.7	0.00431864
1527.35	0.0041869
1536.99	0.00396824
1546.63	0.00398207
1556.27	0.00372109
1565.91	0.00378154
1575.56	0.00344011
1585.2	0.00371858
1594.84	0.00394847
1604.48	0.00417297
1614.13	0.00426576
1623.77	0.00416757
1633.41	0.0045174
1643.05	0.00421378
1652.7	0.00384057
1662.34	0.00458618
1671.98	0.00352231
1681.62	0.00317611
1691.27	0.00256213
1700.91	0.00262686
1710.55	0.0024869
1720.19	0.00216805
1729.84	0.00190312
1739.48	0.000783117
1749.12	0.000991839
1758.76	0.000410909
1768.4	0.000287088
1778.05	0.000229328
1787.69	0.00128564
1797.33	0.000789258
1806.97	0.000834526
1816.62	0.000166178
1826.26	0.000752307
1835.9	0.000213109
1845.54	0.000308182
1855.18	0.000308544
1864.83	-0.000558775
1874.47	-0.000496333
1884.11	-0.00106755
1893.75	-0.00103216
1903.4	-0.00156571
1913.04	-0.00151561
1922.68	-0.00239345
1932.32	-0.0039659
1941.97	-0.00496233
1951.61	-0.00541075
1961.25	-0.00649203
1970.89	-0.00962658
1980.54	-0.0068873
1990.18	-0.00751628
1999.82	-0.00862707
2009.46	-0.00822283
2019.11	-0.00952487
2028.75	-0.0102922
2038.39	-0.00647068
2048.03	-0.00584467
2057.67	-0.00629776
2067.32	-0.00628025
2076.96	-0.00492624
2086.6	-0.00501546
2096.24	-0.00491715
2105.89	-0.00492776
2115.53	-0.00502738
2125.17	-0.0051961
2134.81	-0.00568818
2144.45	-0.00937953
2154.1	-0.0122731
2163.74	-0.00497439
2173.38	-0.00766133
2183.02	-0.00891814
2192.67	-0.00525184
2202.31	-0.0069541
2211.95	-0.00686483
2221.59	-0.00431518
2231.24	-0.00417685
2240.88	-0.00374858
2250.52	-0.00376251
2260.16	-0.00200925
2269.8	-0.00097707
2279.45	1.63042e-05
2289.09	0.000414474
2298.73	0.000181836
2308.38	0.0015029
2318.02	0.00115423
2327.66	0.00114496
2337.3	0.00149323
2346.94	0.00144483
2356.59	0.00225269
2366.23	0.00123661
2375.87	0.00208945
2385.51	0.00154367
2395.16	0.00161254
2404.8	0.00282214
2414.44	0.0018378
2424.08	0.00181766
2433.72	0.00304297
2443.37	0.00266857
2453.01	0.0025551
2462.65	0.00209542
2472.29	0.00147329
2481.94	0.0025993
2491.58	0.00223678
2501.22	0.00266322
2510.86	0.00218015
2520.51	0.00270892
2530.15	0.00293515
2539.79	0.00311942
2549.43	0.00358552
2559.07	0.00320681
2568.72	0.00426215
2578.36	0.00285913
2588	0.00428607
2597.64	0.00273068
2607.29	0.00381678
2616.93	0.00323607
2626.57	0.00349938
2636.21	0.00400762
2645.86	0.00426197
2655.5	0.00386522
2665.14	0.00305757
2674.78	0.00356076
2684.43	0.00342491
2694.07	0.00392345
2703.71	0.00373526
2713.35	0.00323838
2722.99	0.00394687
2732.64	0.00324506
2742.28	0.00274582
2751.92	0.00363727
2761.56	0.00370569
2771.21	0.00365715
2780.85	0.0045765
2790.49	0.00346677
2800.13	0.00409447
2809.78	0.00432689
2819.42	0.00513845
2829.06	0.00534058
2838.7	0.00470999
2848.34	0.00548674
2857.99	0.00507769
2867.63	0.00531301
2877.27	0.00554324
2886.91	0.0055276
2896.56	0.00646013
2906.2	0.00657294
2915.84	0.0068257
2925.48	0.00699096
2935.13	0.00601458
2944.77	0.00705328
2954.41	0.00628912
2964.05	0.00595064
2973.7	0.00604953
2983.34	0.00627351
2992.98	0.00579845
3002.62	0.00666427
3012.26	0.00681204
3021.91	0.00598277
3031.55	0.00583937
3041.19	0.00651675
3050.83	0.00571933
3060.48	0.00597766
3070.12	0.0079158
3079.76	0.00727282
3089.4	0.00828535
3099.05	0.00780004
3108.69	0.00817979
3118.33	0.00793498
3127.97	0.0067912
3137.61	0.00974137
3147.26	0.00970139
3156.9	0.0113354
3166.54	0.0102383
3176.18	0.00862501
3185.83	0.00992605
3195.47	0.0110817
3205.11	0.00921885
3214.75	0.00887874
3224.4	0.00977673
3234.04	0.010762
3243.68	0.00982153
3253.32	0.0116492
3262.97	0.0117409
3272.61	0.0121631
3282.25	0.013585
3291.89	0.0119426
3301.53	0.0135606
3311.18	0.0122486
3320.82	0.0133595
3330.46	0.0132139
3340.1	0.0146518
3349.75	0.0128138
3359.39	0.0133197
3369.03	0.0154887
3378.67	0.0168654
3388.32	0.0153192
3397.96	0.0154852
3407.6	0.0150954
3417.24	0.0152761
3426.89	0.0160239
3436.53	0.0182734
3446.17	0.0203064
3455.81	0.0250656
3465.45	0.0316299
3475.1	0.048569
3484.74	0.124472
3494.38	0.164161
3504.02	0.041828
3513.67	0.0159838
3523.31	0.0119603
3532.95	0.00928227
3542.59	0.00884389
3552.24	0.00776611
3561.88	0.00945904
3571.52	0.00849396
3581.16	0.0079777
3590.8	0.00902747
3600.45	0.00821285
3610.09	0.00835261
3619.73	0.0061875
3629.37	0.00612915
3639.02	0.00428321
3648.66	0.00663758
3658.3	0.00640137
3667.94	0.00514938
3677.59	0.00493817
3687.23	0.00575437
3696.87	0.00339206
3706.51	0.00133877
3716.16	0.00664573
3725.8	0.00288829
3735.44	0.00399834
3745.08	0.0035343
3754.72	0.00529958
3764.37	0.00459784
3774.01	0.00425661
3783.65	0.00396777
3793.29	0.00495652
3802.94	0.00341052
3812.58	0.00591404
3822.22	0.00789241
3831.86	0.00606192
3841.51	0.00748704
3851.15	0.00433187
3860.79	0.00510796
3870.43	0.00501514
3880.07	0.00483678
3889.72	0.00571318
3899.36	0.00470818
3909	0.00725007
3918.64	0.00567609
3928.29	0.00383784
3937.93	0.00443061
3947.57	0.00678266
3957.21	0.00884575
3966.86	0.00847755
3976.5	0.00468378
3986.14	0.00727635
3995.78	0.00730906
