Measurement: Infrared, Infrared Data Processed
Mineral: Dawsonite
Rruff sample: R050641
Ideal chemistry: NaAlCO_3_(OH)_2_
Locality: Francon Quarry, Montréal, Québec, Canada
Source: University of Arizona Mineral Museum
Description: Colorless acicular crystals
Measured chemistry: Na_1.00_Al_1.00_(CO_3_)(OH)_2_ ; trace amounts of Ti ; H_2_O assumed ideal 12.5%; CO_2_ by difference
x	intensity
399.193	0.055401
408.835	0.0469308
418.477	0.0494856
428.12	0.0620595
437.762	0.0711389
447.404	0.0861479
457.047	0.104035
466.689	0.118411
476.331	0.130955
485.974	0.129854
495.616	0.112151
505.258	0.130011
514.901	0.129369
524.543	0.128748
534.185	0.132446
543.828	0.135866
553.47	0.112941
563.112	0.0905887
572.755	0.0751292
582.397	0.0640815
592.039	0.0573208
601.682	0.0535585
611.324	0.0518197
620.966	0.0527742
630.609	0.0595218
640.251	0.0700946
649.893	0.0791976
659.536	0.0881051
669.178	0.0945951
678.82	0.0900894
688.463	0.0821829
698.105	0.0702569
707.747	0.0547436
717.39	0.0377827
727.032	0.0361139
736.674	0.0228606
746.317	0.0153454
755.959	0.0159806
765.601	0.0166895
775.244	0.017247
784.886	0.0179506
794.528	0.0185784
804.171	0.0211504
813.813	0.0265697
823.455	0.0361491
833.098	0.0625102
842.74	0.132347
852.382	0.069654
862.025	0.0901103
871.667	0.0691293
881.309	0.067987
890.952	0.0808915
900.594	0.100231
910.236	0.124304
919.879	0.148523
929.521	0.156992
939.163	0.149563
948.806	0.156022
958.448	0.12706
968.09	0.0682975
977.733	0.0330121
987.375	0.0239957
997.017	0.021827
1006.66	0.0217867
1016.3	0.0205771
1025.94	0.0201889
1035.59	0.0199452
1045.23	0.0194387
1054.87	0.0189822
1064.51	0.0195295
1074.16	0.0245904
1083.8	0.0435879
1093.44	0.0820351
1103.08	0.052914
1112.72	0.0214192
1122.37	0.0146093
1132.01	0.0133601
1141.65	0.0126271
1151.3	0.0122835
1160.94	0.0122389
1170.58	0.0128495
1180.22	0.0132911
1189.86	0.0140473
1199.51	0.0147874
1209.15	0.0160322
1218.79	0.0174279
1228.43	0.0180287
1238.08	0.0197405
1247.72	0.0220523
1257.36	0.0254098
1267	0.0302552
1276.64	0.0376201
1286.29	0.0438096
1295.93	0.0505671
1305.57	0.0605139
1315.21	0.0743149
1324.86	0.0906639
1334.5	0.109886
1344.14	0.131852
1353.78	0.147788
1363.43	0.171077
1373.07	0.197017
1382.71	0.220876
1392.35	0.214884
1401.99	0.158661
1411.64	0.114628
1421.28	0.0884704
1430.92	0.0735145
1440.57	0.0652476
1450.21	0.0615782
1459.85	0.0613173
1469.49	0.0669722
1479.13	0.0801828
1488.78	0.0875107
1498.42	0.0975943
1508.06	0.111826
1517.7	0.128914
1527.35	0.151317
1536.99	0.167951
1546.63	0.163912
1556.27	0.150914
1565.91	0.134569
1575.56	0.116503
1585.2	0.0970026
1594.84	0.0798335
1604.48	0.0633976
1614.13	0.0480162
1623.77	0.0329845
1633.41	0.0212042
1643.05	0.0120592
1652.7	0.00946817
1662.34	0.00871002
1671.98	0.00869007
1681.62	0.00895935
1691.27	0.00942252
1700.91	0.0121151
1710.55	0.0152033
1720.19	0.0194681
1729.84	0.017033
1739.48	0.0119035
1749.12	0.010723
1758.76	0.0118066
1768.4	0.0143436
1778.05	0.0140952
1787.69	0.0119463
1797.33	0.0107762
1806.97	0.0111105
1816.62	0.0132854
1826.26	0.0131988
1835.9	0.0108825
1845.54	0.00938653
1855.18	0.00859452
1864.83	0.00894964
1874.47	0.00954069
1884.11	0.0103251
1893.75	0.00708225
1903.4	0.00682243
1913.04	0.0074482
1922.68	0.00564397
1932.32	0.00558926
1941.97	0.00716585
1951.61	0.00925739
1961.25	0.00795076
1970.89	0.0100603
1980.54	0.0138009
1990.18	0.00833052
1999.82	0.00713745
2009.46	0.00841534
2019.11	0.005687
2028.75	0.00708164
2038.39	0.00827179
2048.03	0.00996281
2057.67	0.00929434
2067.32	0.00899929
2076.96	0.0114934
2086.6	0.0109625
2096.24	0.0105354
2105.89	0.00947946
2115.53	0.00744031
2125.17	0.00559552
2134.81	0.00599496
2144.45	0.00518733
2154.1	-0.00118092
2163.74	0.00205821
2173.38	0.00311574
2183.02	0.00147774
2192.67	0.00344754
2202.31	0.000961151
2211.95	0.00536607
2221.59	0.00619228
2231.24	0.00577134
2240.88	0.00533516
2250.52	0.00658644
2260.16	0.00708289
2269.8	0.00693367
2279.45	0.00821344
2289.09	0.00971069
2298.73	0.00819768
2308.38	0.00819358
2318.02	0.00961316
2327.66	0.00764195
2337.3	0.00800077
2346.94	0.00835001
2356.59	0.00811385
2366.23	0.00780895
2375.87	0.00707503
2385.51	0.00786598
2395.16	0.00798158
2404.8	0.00832916
2414.44	0.0093256
2424.08	0.0106442
2433.72	0.0087847
2443.37	0.0115846
2453.01	0.0128028
2462.65	0.014181
2472.29	0.0142897
2481.94	0.0118151
2491.58	0.0119206
2501.22	0.0115672
2510.86	0.0111573
2520.51	0.0108336
2530.15	0.0101791
2539.79	0.0097893
2549.43	0.00888827
2559.07	0.0115758
2568.72	0.0104624
2578.36	0.0123481
2588	0.012038
2597.64	0.0131868
2607.29	0.0150038
2616.93	0.0122747
2626.57	0.0126117
2636.21	0.0114717
2645.86	0.0131173
2655.5	0.0121719
2665.14	0.0109724
2674.78	0.0103028
2684.43	0.00996482
2694.07	0.0101988
2703.71	0.0107147
2713.35	0.0108823
2722.99	0.011639
2732.64	0.0101195
2742.28	0.011648
2751.92	0.0126336
2761.56	0.01261
2771.21	0.0131053
2780.85	0.0138371
2790.49	0.0139635
2800.13	0.0130286
2809.78	0.0149615
2819.42	0.0149604
2829.06	0.016092
2838.7	0.0168237
2848.34	0.0151775
2857.99	0.0159032
2867.63	0.0169795
2877.27	0.0178213
2886.91	0.0178246
2896.56	0.0201498
2906.2	0.019848
2915.84	0.0222522
2925.48	0.0203772
2935.13	0.0229449
2944.77	0.0237781
2954.41	0.0234495
2964.05	0.0252451
2973.7	0.0298041
2983.34	0.0289071
2992.98	0.0328016
3002.62	0.0352227
3012.26	0.0370467
3021.91	0.0367828
3031.55	0.0437534
3041.19	0.0458755
3050.83	0.0513342
3060.48	0.0564463
3070.12	0.0620743
3079.76	0.0677564
3089.4	0.0728953
3099.05	0.0759312
3108.69	0.0798066
3118.33	0.0850466
3127.97	0.0931903
3137.61	0.103456
3147.26	0.107867
3156.9	0.118857
3166.54	0.131693
3176.18	0.148688
3185.83	0.16514
3195.47	0.184469
3205.11	0.206498
3214.75	0.222976
3224.4	0.243091
3234.04	0.265893
3243.68	0.290884
3253.32	0.309474
3262.97	0.32643
3272.61	0.325941
3282.25	0.296624
3291.89	0.242358
3301.53	0.179513
3311.18	0.135185
3320.82	0.106432
3330.46	0.0875063
3340.1	0.0735963
3349.75	0.0664621
3359.39	0.061688
3369.03	0.0541406
3378.67	0.0473042
3388.32	0.0397057
3397.96	0.0352185
3407.6	0.0328553
3417.24	0.0319049
3426.89	0.0287256
3436.53	0.0264471
3446.17	0.0239152
3455.81	0.0265082
3465.45	0.0234226
3475.1	0.0218992
3484.74	0.0204595
3494.38	0.022029
3504.02	0.0171985
3513.67	0.0168695
3523.31	0.0103098
3532.95	0.0112871
3542.59	0.00723895
3552.24	0.0115782
3561.88	0.00749928
3571.52	0.00637011
3581.16	0.0115974
3590.8	0.00715733
3600.45	0.00705635
3610.09	0.00498554
3619.73	0.00500908
3629.37	0.00753155
3639.02	0.0065497
3648.66	0.00609926
3658.3	0.00502293
3667.94	0.00342595
3677.59	0.00370999
3687.23	0.00939732
3696.87	0.0104093
3706.51	0.00752467
3716.16	0.00386158
3725.8	0.00792752
3735.44	-0.00103897
3745.08	0.00780109
3754.72	0.011797
3764.37	0.00385442
3774.01	0.00790947
3783.65	0.00784691
3793.29	0.00713359
3802.94	0.00902894
3812.58	0.0095563
3822.22	0.00915979
3831.86	0.00847922
3841.51	0.0092165
3851.15	0.00884141
3860.79	0.0112088
3870.43	0.0112721
3880.07	0.00830074
3889.72	0.00815158
3899.36	0.0112735
3909	0.00817976
3918.64	0.006016
3928.29	0.00748733
3937.93	0.00807588
3947.57	0.00981113
3957.21	0.00801703
3966.86	0.0116524
3976.5	0.0113355
3986.14	0.00857769
3995.78	0.0125368
