Measurement: Infrared, Infrared Data Processed
Mineral: Dickite
Rruff sample: R090054
Ideal chemistry: Al_2_Si_2_O_5_(OH)_4_
Locality: Schuylkill county, Pennsylvania, USA
Source: Mineralogical Museum, Harvard University
Description: Unconsolidated mass of hexagonal platelets associated with minor quartz crystals.
x	intensity
374.123	0.254904
383.765	0.243648
393.407	0.274991
403.05	0.28687
412.692	0.296588
422.334	0.324332
431.976	0.29864
441.619	0.268499
451.261	0.330967
460.904	0.355492
470.546	0.278472
480.188	0.179697
489.83	0.148604
499.473	0.201277
509.115	0.242992
518.758	0.297779
528.4	0.307095
538.042	0.291775
547.684	0.247925
557.327	0.218513
566.969	0.193632
576.611	0.172746
586.254	0.162453
595.896	0.154227
605.538	0.150677
615.181	0.127118
624.823	0.115777
634.466	0.117938
644.108	0.1206
653.75	0.116865
663.393	0.1161
673.035	0.11558
682.677	0.11242
692.319	0.103905
701.962	0.0786011
711.604	0.0528018
721.246	0.0450226
730.889	0.0533976
740.531	0.0822385
750.173	0.0979728
759.816	0.0850387
769.458	0.079565
779.101	0.0927297
788.743	0.126182
798.385	0.112892
808.028	0.0580272
817.67	0.0458844
827.312	0.0493746
836.955	0.0586651
846.597	0.0752011
856.239	0.0998637
865.881	0.134945
875.524	0.178531
885.166	0.229821
894.808	0.289678
904.451	0.335139
914.093	0.331725
923.736	0.233201
933.378	0.267548
943.02	0.236141
952.663	0.258793
962.305	0.300244
971.947	0.329176
981.59	0.418756
991.232	0.517052
1000.87	0.508015
1010.52	0.395732
1020.16	0.415853
1029.8	0.524108
1039.44	0.361461
1049.09	0.262174
1058.73	0.201649
1068.37	0.15844
1078.01	0.12112
1087.65	0.0943278
1097.3	0.0868429
1106.94	0.0969535
1116.58	0.162856
1126.22	0.0959365
1135.87	0.0638343
1145.51	0.0462994
1155.15	0.0364743
1164.79	0.0336303
1174.44	0.0282181
1184.08	0.0230204
1193.72	0.0192356
1203.36	0.0159273
1213.01	0.0123483
1222.65	0.00920194
1232.29	0.00770344
1241.93	0.00678173
1251.58	0.00590539
1261.22	0.00523353
1270.86	0.00489734
1280.5	0.00461055
1290.14	0.0038358
1299.79	0.00358711
1309.43	0.00359216
1319.07	0.00366398
1328.71	0.00336453
1338.36	0.0033515
1348	0.00328577
1357.64	0.0032876
1367.28	0.00344145
1376.92	0.00350447
1386.57	0.00342858
1396.21	0.00339481
1405.85	0.00341262
1415.49	0.00341221
1425.14	0.00355959
1434.78	0.00366769
1444.42	0.00364629
1454.06	0.00403425
1463.71	0.0040887
1473.35	0.00398141
1482.99	0.00327435
1492.63	0.00324632
1502.28	0.00313505
1511.92	0.00322157
1521.56	0.00344213
1531.2	0.00345627
1540.85	0.00398641
1550.49	0.00356233
1560.13	0.00444792
1569.77	0.00407857
1579.41	0.00417307
1589.06	0.0042859
1598.7	0.00498228
1608.34	0.00548719
1617.98	0.00655905
1627.63	0.00719348
1637.27	0.00777001
1646.91	0.00772494
1656.55	0.00690324
1666.19	0.00644796
1675.84	0.00620805
1685.48	0.00650691
1695.12	0.00627173
1704.77	0.005575
1714.41	0.00546009
1724.05	0.00540036
1733.69	0.00653164
1743.33	0.00492078
1752.98	0.00444636
1762.62	0.00417601
1772.26	0.00428427
1781.9	0.00375905
1791.55	0.00363796
1801.19	0.00406908
1810.83	0.00467086
1820.47	0.00535934
1830.12	0.00585881
1839.76	0.00492724
1849.4	0.00459499
1859.04	0.00432666
1868.68	0.0046659
1878.33	0.00426578
1887.97	0.00479342
1897.61	0.00459493
1907.25	0.00480359
1916.9	0.00526189
1926.54	0.00480052
1936.18	0.00510385
1945.82	0.00538449
1955.46	0.00304527
1965.11	0.00387376
1974.75	0.00318098
1984.39	0.00219885
1994.04	0.00122727
2003.68	-0.000204717
2013.32	-0.00101526
2022.96	-0.00020933
2032.6	0.000739133
2042.25	0.000839768
2051.89	0.000648357
2061.53	-0.000747366
2071.17	-0.000215976
2080.82	0.000966855
2090.46	0.000644232
2100.1	0.00196307
2109.74	0.0015567
2119.39	0.00178386
2129.03	0.000965061
2138.67	0.0027177
2148.31	0.00233743
2157.95	0.00498651
2167.6	0.00650561
2177.24	0.0051445
2186.88	0.00502565
2196.52	0.00558752
2206.17	0.00460897
2215.81	0.00424665
2225.45	0.004175
2235.09	0.00306043
2244.74	0.00296061
2254.38	0.0034493
2264.02	0.0037255
2273.66	0.00440962
2283.3	0.00480959
2292.95	0.00473731
2302.59	0.00425708
2312.23	0.00461129
2321.87	0.00564857
2331.52	0.0050168
2341.16	0.0045954
2350.8	0.00450851
2360.44	0.00505794
2370.09	0.00465435
2379.73	0.00353635
2389.37	0.00393409
2399.01	0.00399699
2408.66	0.00428287
2418.3	0.00369957
2427.94	0.00425113
2437.58	0.00395646
2447.22	0.00416772
2456.87	0.004435
2466.51	0.00450931
2476.15	0.00484453
2485.79	0.00385221
2495.44	0.00504511
2505.08	0.00494539
2514.72	0.00429331
2524.36	0.00514469
2534.01	0.00509985
2543.65	0.00482561
2553.29	0.00456961
2562.93	0.00496223
2572.57	0.00514252
2582.22	0.00508302
2591.86	0.00518229
2601.5	0.00525477
2611.14	0.00553735
2620.79	0.00555994
2630.43	0.00566672
2640.07	0.00577212
2649.71	0.00600469
2659.36	0.00573886
2669	0.00569627
2678.64	0.00590511
2688.28	0.00584936
2697.93	0.00601946
2707.57	0.00584935
2717.21	0.0062162
2726.85	0.00614595
2736.49	0.00662099
2746.14	0.00651293
2755.78	0.00680086
2765.42	0.00696417
2775.06	0.00703911
2784.71	0.00739567
2794.35	0.0079804
2803.99	0.00773367
2813.63	0.00841285
2823.28	0.00870544
2832.92	0.00945609
2842.56	0.0101561
2852.2	0.0106702
2861.84	0.0109948
2871.49	0.0117285
2881.13	0.0117721
2890.77	0.0119954
2900.41	0.012729
2910.06	0.013483
2919.7	0.0146898
2929.34	0.0151292
2938.98	0.0144494
2948.62	0.0141312
2958.27	0.0162695
2967.91	0.014927
2977.55	0.0140513
2987.2	0.0129878
2996.84	0.0133989
3006.48	0.0141454
3016.12	0.0135799
3025.76	0.014158
3035.41	0.0148762
3045.05	0.0149809
3054.69	0.0160612
3064.33	0.0163847
3073.98	0.0168403
3083.62	0.0173393
3093.26	0.0175557
3102.9	0.018198
3112.55	0.0188565
3122.19	0.0196004
3131.83	0.01971
3141.47	0.0205012
3151.11	0.0206407
3160.76	0.0211023
3170.4	0.0223464
3180.04	0.0232728
3189.68	0.0236301
3199.33	0.0239557
3208.97	0.0254956
3218.61	0.0257714
3228.25	0.0260597
3237.9	0.0266225
3247.54	0.0269634
3257.18	0.0279707
3266.82	0.0278229
3276.47	0.0284451
3286.11	0.0291733
3295.75	0.0294637
3305.39	0.0299739
3315.03	0.0308408
3324.68	0.031315
3334.32	0.0309676
3343.96	0.0322438
3353.6	0.0338491
3363.25	0.0344293
3372.89	0.0351137
3382.53	0.0352908
3392.17	0.036463
3401.82	0.0372764
3411.46	0.037084
3421.1	0.0377784
3430.74	0.0390123
3440.39	0.0405034
3450.03	0.041707
3459.67	0.0422609
3469.31	0.0434319
3478.95	0.0445323
3488.6	0.0450186
3498.24	0.0459571
3507.88	0.0472665
3517.52	0.0496973
3527.17	0.0523589
3536.81	0.0559829
3546.45	0.060493
3556.09	0.0662732
3565.74	0.0733626
3575.38	0.0877918
3585.02	0.108739
3594.66	0.141382
3604.3	0.187731
3613.95	0.280599
3623.59	0.382519
3633.23	0.233724
3642.87	0.261624
3652.52	0.228012
3662.16	0.112551
3671.8	0.0681855
3681.44	0.0761297
3691.09	0.118736
3700.73	0.205704
3710.37	0.123548
3720.01	0.0373142
3729.66	0.0141919
3739.3	0.00730732
3748.94	0.00620136
3758.58	0.0034043
3768.22	0.00296211
3777.87	0.00111761
3787.51	0.0015247
3797.15	0.00229928
3806.79	0.00334645
3816.44	0.00259051
3826.08	0.00180416
3835.72	0.00274856
3845.36	0.00224388
3855.01	0.00393472
3864.65	0.00315859
3874.29	0.00290208
3883.93	0.0023516
3893.57	0.00257763
3903.22	0.00181068
3912.86	0.00261305
3922.5	0.00142761
3932.14	0.00223082
3941.79	0.00130193
3951.43	0.00165677
3961.07	0.000943468
3970.71	0.00204748
3980.36	0.00143455
3990	0.00218389
3999.64	0.00141371
