Measurement: Infrared, Infrared Data Processed
Mineral: Dolomite
Rruff sample: R050129
Ideal chemistry: CaMg(CO_3_)_2_
Locality: Black Cloud mine, Leadville, Lake County, Colorado, USA
Source: Dave Bunk Minerals
Description: Aggregate of colorless to white rhombohedra
Measured chemistry: Ca(Mg_0.62_Fe^2+^_0.33_Mn_0.05_)_Î£=1_(CO_3_)_2_ ; CO_2_ estimated by difference
x	intensity
50.1401	0.0211364
52.0686	0.0178076
53.9971	0.0170018
55.9255	0.0197875
57.854	0.024843
59.7825	0.0287276
61.7109	0.0246102
63.6394	0.0259424
65.5679	0.0252889
67.4963	0.0264181
69.4248	0.0272633
71.3533	0.0329037
73.2817	0.0352504
75.2102	0.0356537
77.1387	0.036644
79.0671	0.0389481
80.9956	0.0407558
82.9241	0.0448469
84.8525	0.0466648
86.781	0.0474699
88.7095	0.047609
90.6379	0.049632
92.5664	0.0495963
94.4948	0.0513087
96.4233	0.0531934
98.3518	0.0541474
100.28	0.054396
102.209	0.0576935
104.137	0.0602162
106.066	0.0626898
107.994	0.0639463
109.923	0.0661052
111.851	0.0657733
113.779	0.0670335
115.708	0.0694889
117.636	0.0726127
119.565	0.073142
121.493	0.0740792
123.422	0.0744205
125.35	0.0758879
127.279	0.0775542
129.207	0.0808223
131.136	0.081323
133.064	0.082323
134.993	0.0830859
136.921	0.0863882
138.85	0.0872758
140.778	0.0872668
142.707	0.0869343
144.635	0.0863156
146.563	0.0840988
148.492	0.0822153
150.42	0.0784757
152.349	0.0738608
154.277	0.0682931
156.206	0.0643658
158.134	0.0597429
160.063	0.055936
161.991	0.0523872
163.92	0.0504435
165.848	0.0495718
167.777	0.0492036
169.705	0.0490269
171.633	0.0486496
173.562	0.0476581
175.49	0.0462354
177.419	0.0439822
179.347	0.0415861
181.276	0.0395229
183.204	0.0383215
185.133	0.0380386
187.061	0.0382559
188.99	0.0389289
190.918	0.0401335
192.847	0.0410962
194.775	0.0421132
196.704	0.0435177
198.632	0.0453612
200.56	0.0469707
202.489	0.0491759
204.417	0.0509527
206.346	0.0529966
208.274	0.0548569
210.203	0.0563543
212.131	0.0574331
214.06	0.0588198
215.988	0.0594577
217.917	0.0600524
219.845	0.0608657
221.774	0.0615077
223.702	0.0616399
225.631	0.061788
227.559	0.0626678
229.488	0.0639016
231.416	0.0648019
233.344	0.0663558
235.273	0.0682235
237.201	0.0698823
239.13	0.0713927
241.058	0.0729238
242.987	0.0743718
244.915	0.0758112
246.844	0.0774276
248.772	0.0794242
250.701	0.0810425
252.629	0.0827655
254.558	0.0846448
256.486	0.0855341
258.414	0.0856553
260.343	0.085526
262.271	0.0846027
264.2	0.0831791
266.128	0.0815714
268.057	0.0805365
269.985	0.0803914
271.914	0.0814834
273.842	0.0831328
275.771	0.0854118
277.699	0.0877611
279.628	0.0904106
281.556	0.0926882
283.485	0.0951864
285.413	0.097673
287.341	0.100739
289.27	0.103941
291.198	0.106928
293.127	0.109499
295.055	0.112484
296.984	0.115182
298.912	0.117339
300.841	0.119233
302.769	0.121022
304.698	0.122116
306.626	0.122865
308.555	0.123519
310.483	0.123777
312.411	0.123729
314.34	0.12416
316.269	0.12442
318.197	0.124511
320.125	0.123735
322.054	0.122855
323.982	0.121819
325.911	0.121543
327.839	0.12118
329.768	0.120373
331.696	0.119901
333.625	0.120041
335.553	0.120632
337.482	0.121511
339.41	0.122087
341.339	0.123078
343.267	0.124011
345.195	0.124594
347.124	0.124189
349.052	0.124018
350.981	0.123423
352.909	0.122759
354.838	0.121566
356.766	0.119919
358.695	0.118278
360.623	0.116432
362.552	0.114275
364.48	0.112136
366.409	0.109709
368.337	0.107222
370.265	0.104544
372.194	0.101586
374.122	0.0987627
376.051	0.0961098
377.979	0.0931385
379.908	0.0902538
381.836	0.0874413
383.765	0.0846695
385.693	0.0819551
387.622	0.0792421
389.55	0.0764641
391.479	0.0739641
393.407	0.0711665
395.336	0.0684732
397.264	0.0660833
399.192	0.0638988
401.121	0.0614654
403.049	0.058864
404.978	0.0564678
406.906	0.0543361
408.835	0.0520003
410.763	0.049846
412.692	0.0476774
414.62	0.0454697
416.549	0.0434475
418.477	0.0413159
420.406	0.0391056
422.334	0.0371536
424.262	0.0353786
426.191	0.0338206
428.12	0.0326709
430.048	0.0313336
431.976	0.030384
433.905	0.0295876
435.833	0.0286919
437.762	0.0282156
439.69	0.0277132
441.619	0.0272189
443.547	0.0270402
445.476	0.026833
447.404	0.0264983
449.333	0.0262233
451.261	0.0261753
453.19	0.0261218
455.118	0.0259236
457.046	0.0256903
458.975	0.0254239
460.903	0.0250294
462.832	0.0246782
464.76	0.0247427
466.689	0.0247821
468.617	0.0246531
470.546	0.0246375
472.474	0.0247973
474.403	0.0250198
476.331	0.0246887
478.26	0.0243387
480.188	0.0243892
482.116	0.0244702
484.045	0.0244806
485.974	0.0242223
487.902	0.0241407
489.83	0.0239974
491.759	0.0237308
493.687	0.0238039
495.616	0.0241893
497.544	0.0241762
499.473	0.0238738
501.401	0.0238436
503.33	0.0238716
505.258	0.0236863
507.187	0.0236466
509.115	0.0236366
511.043	0.0233083
512.972	0.0229784
514.9	0.0227489
516.829	0.0229146
518.757	0.0232337
520.686	0.0233951
522.614	0.0233553
524.543	0.0231608
526.471	0.0231897
528.4	0.0235456
530.328	0.0237904
532.257	0.0238247
534.185	0.0236765
536.114	0.0234019
538.042	0.0234219
539.971	0.0234961
541.899	0.0232961
543.827	0.0231455
545.756	0.0232498
547.684	0.023393
549.613	0.0235169
551.541	0.0237878
553.47	0.0238803
555.398	0.0238029
557.327	0.023916
559.255	0.0237122
561.184	0.023749
563.112	0.0241164
565.041	0.0237781
566.969	0.0235694
568.898	0.0237837
570.826	0.0240405
572.755	0.0240272
574.683	0.023899
576.611	0.0240362
578.54	0.0242786
580.468	0.0243475
582.397	0.0244717
584.325	0.0244536
586.254	0.0242613
588.182	0.0241635
590.111	0.0242353
592.039	0.0241238
593.968	0.0239901
595.896	0.0238318
597.824	0.0237357
599.753	0.0234759
601.682	0.023289
603.61	0.0234762
605.538	0.0236208
607.467	0.0235487
609.395	0.0233585
611.324	0.0232609
613.252	0.0230862
615.181	0.0233283
617.109	0.0236664
619.038	0.0238528
620.966	0.0239543
622.894	0.0242058
624.823	0.0249936
626.751	0.0259169
628.68	0.0268403
630.608	0.0278939
632.537	0.0286359
634.465	0.0290576
636.394	0.0293722
638.322	0.0291624
640.251	0.0293103
642.179	0.0298372
644.108	0.0301687
646.036	0.0304716
647.965	0.0305133
649.893	0.0304074
651.822	0.0306214
653.75	0.03095
655.678	0.0312496
657.607	0.0316028
659.535	0.0319963
661.464	0.0320597
663.392	0.0320426
665.321	0.0324112
667.249	0.0330508
669.178	0.0331859
671.106	0.0330873
673.035	0.0327405
674.963	0.0332211
676.892	0.0340376
678.82	0.0344731
680.749	0.0346592
682.677	0.035097
684.606	0.0356143
686.534	0.0355336
688.462	0.0360982
690.391	0.0370821
692.319	0.0373143
694.248	0.0375627
696.176	0.0385956
698.105	0.039633
700.033	0.0387375
