Measurement: Infrared, Infrared Data Processed
Mineral: Dolomite
Rruff sample: R050370
Ideal chemistry: CaMg(CO_3_)_2_
Locality: Morro Velho mine, Nova Lima, Minas Gerais, Brazil
Source: Eugene Schlepp
Description: Colorless bladed crystals associated with pyrrhotite and albite
Measured chemistry: (Ca_0.84_Fe_0.16_)_Σ=1_(Mg_0.98_Mn_0.02_)_Σ=1_(CO_3_)_2_ ; CO_2_ estimated by difference
x	intensity
399.193	0.0933649
408.835	0.0733383
418.477	0.0521589
428.12	0.0409699
437.762	0.0318878
447.404	0.0245981
457.047	0.0237503
466.689	0.0217929
476.331	0.0203097
485.974	0.0207427
495.616	0.0194917
505.258	0.0186451
514.901	0.0192147
524.543	0.0180782
534.185	0.0175056
543.828	0.0172795
553.47	0.0171644
563.112	0.0170195
572.755	0.0167301
582.397	0.0164478
592.039	0.0159986
601.682	0.0159519
611.324	0.015768
620.966	0.0150644
630.609	0.0152377
640.251	0.0153936
649.893	0.0163205
659.536	0.0167475
669.178	0.0184249
678.82	0.019551
688.463	0.0217288
698.105	0.0227794
707.747	0.0264382
717.39	0.040481
727.032	0.120183
736.674	0.0275747
746.317	0.0183123
755.959	0.0166321
765.601	0.0165549
775.244	0.0165123
784.886	0.0174126
794.528	0.0174528
804.171	0.017169
813.813	0.0182933
823.455	0.019446
833.098	0.02239
842.74	0.0310661
852.382	0.0540821
862.025	0.11238
871.667	0.301883
881.309	0.222912
890.952	0.0470353
900.594	0.0195341
910.236	0.018812
919.879	0.0182157
929.521	0.0188041
939.163	0.0190991
948.806	0.0196744
958.448	0.0204122
968.09	0.0214876
977.733	0.0223164
987.375	0.0243309
997.017	0.0257142
1006.66	0.0265699
1016.3	0.028724
1025.94	0.0313206
1035.59	0.0342278
1045.23	0.0370354
1054.87	0.0384399
1064.51	0.0394143
1074.16	0.040693
1083.8	0.0417753
1093.44	0.0436736
1103.08	0.0433029
1112.72	0.043408
1122.37	0.0442744
1132.01	0.0462846
1141.65	0.0485994
1151.3	0.0516041
1160.94	0.0544754
1170.58	0.0582332
1180.22	0.0620728
1189.86	0.0659707
1199.51	0.0697791
1209.15	0.0745879
1218.79	0.0807087
1228.43	0.0877647
1238.08	0.0953209
1247.72	0.104101
1257.36	0.114383
1267	0.126526
1276.64	0.142406
1286.29	0.156577
1295.93	0.174516
1305.57	0.196416
1315.21	0.223798
1324.86	0.254827
1334.5	0.292109
1344.14	0.336393
1353.78	0.388937
1363.43	0.447001
1373.07	0.508678
1382.71	0.569073
1392.35	0.631188
1401.99	0.674024
1411.64	0.681338
1421.28	0.641857
1430.92	0.576455
1440.57	0.519386
1450.21	0.474096
1459.85	0.425788
1469.49	0.376351
1479.13	0.331653
1488.78	0.29119
1498.42	0.251383
1508.06	0.212568
1517.7	0.177211
1527.35	0.145054
1536.99	0.116102
1546.63	0.0900144
1556.27	0.0641925
1565.91	0.0386603
1575.56	0.0275591
1585.2	0.024844
1594.84	0.0240491
1604.48	0.0222607
1614.13	0.019578
1623.77	0.0182222
1633.41	0.0171211
1643.05	0.0161997
1652.7	0.0153491
1662.34	0.0136168
1671.98	0.012448
1681.62	0.0104391
1691.27	0.00904623
1700.91	0.00723664
1710.55	0.00658012
1720.19	0.00674448
1729.84	0.00637736
1739.48	0.00554046
1749.12	0.0052282
1758.76	0.00382095
1768.4	0.00459374
1778.05	0.00516335
1787.69	0.00624485
1797.33	0.00897299
1806.97	0.0135647
1816.62	0.0138382
1826.26	0.00853171
1835.9	0.00453424
1845.54	0.00402792
1855.18	0.00303519
1864.83	0.00407212
1874.47	0.00307821
1884.11	0.00398625
1893.75	0.00415642
1903.4	0.00480928
1913.04	0.00210921
1922.68	0.0040553
1932.32	0.00310162
1941.97	0.00207434
1951.61	0.00411618
1961.25	0.00120703
1970.89	0.00636301
1980.54	0.0064428
1990.18	0.00600404
1999.82	0.00630888
2009.46	0.0036709
2019.11	0.00375751
2028.75	0.00801401
2038.39	0.00461948
2048.03	0.00897216
2057.67	0.00534805
2067.32	0.00474866
2076.96	0.00475628
2086.6	0.00614367
2096.24	0.00601872
2105.89	0.00654931
2115.53	0.00851888
2125.17	0.00435772
2134.81	0.00611507
2144.45	0.00702823
2154.1	0.00556513
2163.74	0.0120759
2173.38	0.00775472
2183.02	0.0117593
2192.67	0.00643753
2202.31	0.010299
2211.95	0.00847052
2221.59	0.00863935
2231.24	0.00703156
2240.88	0.00928943
2250.52	0.00952282
2260.16	0.0103027
2269.8	0.00901429
2279.45	0.0102179
2289.09	0.0100938
2298.73	0.0107042
2308.38	0.0109507
2318.02	0.0105889
2327.66	0.0117983
2337.3	0.0114421
2346.94	0.011183
2356.59	0.0117935
2366.23	0.0116028
2375.87	0.0096378
2385.51	0.00894939
2395.16	0.00865501
2404.8	0.0100115
2414.44	0.0106311
2424.08	0.0108455
2433.72	0.0104016
2443.37	0.0103162
2453.01	0.0103585
2462.65	0.0110779
2472.29	0.0120465
2481.94	0.0119722
2491.58	0.0141394
2501.22	0.0154652
2510.86	0.0181182
2520.51	0.0222804
2530.15	0.0208755
2539.79	0.0188774
2549.43	0.0171725
2559.07	0.0154842
2568.72	0.0138874
2578.36	0.0127215
2588	0.0122825
2597.64	0.0115183
2607.29	0.0125186
2616.93	0.0136144
2626.57	0.0131402
2636.21	0.0131659
2645.86	0.0127278
2655.5	0.0115631
2665.14	0.0115421
2674.78	0.0108527
2684.43	0.00919635
2694.07	0.0102712
2703.71	0.0112425
2713.35	0.0112868
2722.99	0.010209
2732.64	0.010385
2742.28	0.0108166
2751.92	0.0107517
2761.56	0.0106061
2771.21	0.011632
2780.85	0.0107117
2790.49	0.0112397
2800.13	0.0119405
2809.78	0.0117092
2819.42	0.0128656
2829.06	0.0140653
2838.7	0.0158705
2848.34	0.0237361
2857.99	0.0228981
2867.63	0.0191808
2877.27	0.0197182
2886.91	0.0228017
2896.56	0.0236324
2906.2	0.0264028
2915.84	0.0337067
2925.48	0.0341796
2935.13	0.0258299
2944.77	0.0224517
2954.41	0.0222648
2964.05	0.0205752
2973.7	0.0189639
2983.34	0.0199502
2992.98	0.0202044
3002.62	0.0193001
3012.26	0.0203374
3021.91	0.0212252
3031.55	0.0207257
3041.19	0.0204856
3050.83	0.0205225
3060.48	0.0214842
3070.12	0.0215689
3079.76	0.0220089
3089.4	0.0232712
3099.05	0.0228984
3108.69	0.0256752
3118.33	0.0275647
3127.97	0.0278465
3137.61	0.0283361
3147.26	0.0291753
3156.9	0.0310186
3166.54	0.0319127
3176.18	0.0329097
3185.83	0.0334603
3195.47	0.0330995
3205.11	0.0361898
3214.75	0.0340533
3224.4	0.0356048
3234.04	0.0368834
3243.68	0.0383464
3253.32	0.0393931
3262.97	0.0374819
3272.61	0.0384797
3282.25	0.0425506
3291.89	0.0416446
3301.53	0.0411425
3311.18	0.0433862
3320.82	0.0409327
3330.46	0.0430556
3340.1	0.0425886
3349.75	0.0452977
3359.39	0.0421617
3369.03	0.040861
3378.67	0.0430588
3388.32	0.0408958
3397.96	0.0403423
3407.6	0.03994
3417.24	0.0414925
3426.89	0.0387346
3436.53	0.0397255
3446.17	0.0394509
3455.81	0.037289
3465.45	0.0335791
3475.1	0.0342307
3484.74	0.0336819
3494.38	0.0315334
3504.02	0.0326743
3513.67	0.0298948
3523.31	0.031478
3532.95	0.0288178
3542.59	0.0261539
3552.24	0.0297338
3561.88	0.0278556
3571.52	0.0285669
3581.16	0.0256891
3590.8	0.0240504
3600.45	0.0262187
3610.09	0.0249478
3619.73	0.0214551
3629.37	0.0253502
3639.02	0.0214854
3648.66	0.0265616
3658.3	0.0183868
3667.94	0.0216425
3677.59	0.0194199
3687.23	0.0208087
3696.87	0.0237868
3706.51	0.0231457
3716.16	0.024233
3725.8	0.0225412
3735.44	0.0212143
3745.08	0.0253064
3754.72	0.0239843
3764.37	0.0237091
3774.01	0.0211368
3783.65	0.0224741
3793.29	0.019928
3802.94	0.0257137
3812.58	0.0246179
3822.22	0.0277974
3831.86	0.0233179
3841.51	0.0291176
3851.15	0.0280763
3860.79	0.0221749
3870.43	0.0267828
3880.07	0.0213356
3889.72	0.02587
3899.36	0.0252063
3909	0.0260705
3918.64	0.0272299
3928.29	0.0234997
3937.93	0.0225918
3947.57	0.0228213
3957.21	0.0314905
3966.86	0.026455
3976.5	0.0266756
3986.14	0.0265969
3995.78	0.0306997
