Measurement: Infrared, Infrared Data Processed
Mineral: Dravite
Rruff sample: R040088
Ideal chemistry: NaMg_3_Al_6_(Si_6_O_18_)(BO_3_)_3_(OH)_3_OH
Locality: Yinnietharra Station, Pilbara, Western Australia, Australia
Source: University of Arizona Mineral Museum
Description: Brown short prismatic crystal
Measured chemistry: (Na_0.88_Ca_0.06_[box]_0.06_)(Mg_0.88_Al_0.10_Ti_0.04_Fe_0.02_)_3_Al_6.00_(B_1_O_3_)_3_Si_6.00_O_18_((OH)_0.98_F_0.02_)_4_
x	intensity
399.193	0
408.835	0.276853
418.477	0.293132
428.12	0.269238
437.762	0.266651
447.404	0.287185
457.047	0.283767
466.689	0.298175
476.331	0.312551
485.974	0.31224
495.616	0.293266
505.258	0.269444
514.901	0.23265
524.543	0.200829
534.185	0.175834
543.828	0.156989
553.47	0.15016
563.112	0.153956
572.755	0.159652
582.397	0.152393
592.039	0.133115
601.682	0.123995
611.324	0.117468
620.966	0.0979499
630.609	0.0835414
640.251	0.0720431
649.893	0.0853351
659.536	0.0859339
669.178	0.0820974
678.82	0.0924972
688.463	0.0979533
698.105	0.113983
707.747	0.132477
717.39	0.127279
727.032	0.0882922
736.674	0.0807663
746.317	0.0794837
755.959	0.0952019
765.601	0.0921378
775.244	0.0974545
784.886	0.0919866
794.528	0.0649858
804.171	0.0424294
813.813	0.0436434
823.455	0.0409771
833.098	0.0373438
842.74	0.036549
852.382	0.0379876
862.025	0.0408753
871.667	0.0444898
881.309	0.0506184
890.952	0.0633406
900.594	0.081783
910.236	0.10299
919.879	0.124593
929.521	0.155416
939.163	0.196675
948.806	0.235858
958.448	0.269981
968.09	0.290103
977.733	0.293074
987.375	0.28286
997.017	0.249944
1006.66	0.214911
1016.3	0.200984
1025.94	0.213823
1035.59	0.217909
1045.23	0.203451
1054.87	0.163195
1064.51	0.137771
1074.16	0.130151
1083.8	0.12879
1093.44	0.124059
1103.08	0.103052
1112.72	0.0706946
1122.37	0.0440281
1132.01	0.0266195
1141.65	0.0174711
1151.3	0.0138451
1160.94	0.012786
1170.58	0.0125693
1180.22	0.0133899
1189.86	0.0147333
1199.51	0.018525
1209.15	0.027353
1218.79	0.0493085
1228.43	0.0867143
1238.08	0.120578
1247.72	0.136067
1257.36	0.132938
1267	0.123003
1276.64	0.109454
1286.29	0.0981163
1295.93	0.0914907
1305.57	0.0854957
1315.21	0.0794838
1324.86	0.0750023
1334.5	0.0801729
1344.14	0.104437
1353.78	0.105584
1363.43	0.0878754
1373.07	0.069631
1382.71	0.053201
1392.35	0.0426302
1401.99	0.034967
1411.64	0.0274813
1421.28	0.0229719
1430.92	0.0182077
1440.57	0.0130882
1450.21	0.00923371
1459.85	0.00774418
1469.49	0.00610725
1479.13	0.00539317
1488.78	0.0048138
1498.42	0.0043812
1508.06	0.00422175
1517.7	0.00387724
1527.35	0.00402032
1536.99	0.0041081
1546.63	0.00448271
1556.27	0.00493463
1565.91	0.00557184
1575.56	0.00608363
1585.2	0.00662871
1594.84	0.00719876
1604.48	0.00727379
1614.13	0.00712252
1623.77	0.00731627
1633.41	0.00723021
1643.05	0.00685583
1652.7	0.00646341
1662.34	0.00597741
1671.98	0.0058288
1681.62	0.00540454
1691.27	0.00527762
1700.91	0.0049131
1710.55	0.00504649
1720.19	0.00466724
1729.84	0.0045119
1739.48	0.00422473
1749.12	0.0038582
1758.76	0.00407897
1768.4	0.00447746
1778.05	0.00406867
1787.69	0.00439493
1797.33	0.00471859
1806.97	0.00442132
1816.62	0.00393519
1826.26	0.00446625
1835.9	0.00411691
1845.54	0.00367818
1855.18	0.00353214
1864.83	0.00317117
1874.47	0.00359049
1884.11	0.00254271
1893.75	0.0027961
1903.4	0.00166064
1913.04	0.00196218
1922.68	0.00126767
1932.32	0.00151571
1941.97	0.000511988
1951.61	-0.000788548
1961.25	-0.00196796
1970.89	-0.00283635
1980.54	-0.000728624
1990.18	-0.00104169
1999.82	-0.000811071
2009.46	-0.000890252
2019.11	-0.00316288
2028.75	-0.00266187
2038.39	0.000796352
2048.03	0.000708117
2057.67	0.00135938
2067.32	-0.000586934
2076.96	0.00195759
2086.6	0.00174618
2096.24	0.00205127
2105.89	0.00352135
2115.53	0.00322801
2125.17	0.00231392
2134.81	-0.000426211
2144.45	-0.000551326
2154.1	-0.00224823
2163.74	0.00341271
2173.38	0.000921171
2183.02	0.00131062
2192.67	0.00311671
2202.31	0.00431569
2211.95	0.00305023
2221.59	0.00515619
2231.24	0.00690131
2240.88	0.00661296
2250.52	0.00923657
2260.16	0.00827296
2269.8	0.00836788
2279.45	0.00964153
2289.09	0.00886718
2298.73	0.0106202
2308.38	0.0102107
2318.02	0.0105118
2327.66	0.00941659
2337.3	0.00985378
2346.94	0.0101649
2356.59	0.00991897
2366.23	0.00992567
2375.87	0.00912553
2385.51	0.00875383
2395.16	0.00839405
2404.8	0.00906651
2414.44	0.00875196
2424.08	0.00801833
2433.72	0.0089388
2443.37	0.00848747
2453.01	0.00870746
2462.65	0.00739096
2472.29	0.00634805
2481.94	0.00597026
2491.58	0.00707667
2501.22	0.00600664
2510.86	0.00621018
2520.51	0.00636355
2530.15	0.00656524
2539.79	0.00749884
2549.43	0.00680216
2559.07	0.00765481
2568.72	0.00812278
2578.36	0.00805526
2588	0.00716756
2597.64	0.00959874
2607.29	0.00906191
2616.93	0.0098862
2626.57	0.010217
2636.21	0.0106472
2645.86	0.0102198
2655.5	0.0101145
2665.14	0.00986596
2674.78	0.00994733
2684.43	0.00940667
2694.07	0.00998879
2703.71	0.00934474
2713.35	0.00922837
2722.99	0.00990687
2732.64	0.0100039
2742.28	0.010239
2751.92	0.0101949
2761.56	0.0102589
2771.21	0.0103598
2780.85	0.011677
2790.49	0.0110978
2800.13	0.0114933
2809.78	0.0110369
2819.42	0.0119062
2829.06	0.0124246
2838.7	0.0125277
2848.34	0.0125013
2857.99	0.0116311
2867.63	0.0116682
2877.27	0.0134704
2886.91	0.012691
2896.56	0.0126586
2906.2	0.012366
2915.84	0.0128083
2925.48	0.011648
2935.13	0.011198
2944.77	0.0133178
2954.41	0.0131293
2964.05	0.0135054
2973.7	0.0137547
2983.34	0.0142838
2992.98	0.015176
3002.62	0.0138026
3012.26	0.0148178
3021.91	0.0145576
3031.55	0.0160438
3041.19	0.0158775
3050.83	0.0157885
3060.48	0.0166625
3070.12	0.0151382
3079.76	0.0168338
3089.4	0.0171051
3099.05	0.0171735
3108.69	0.0170074
3118.33	0.0167268
3127.97	0.0160628
3137.61	0.0178859
3147.26	0.0162834
3156.9	0.0178936
3166.54	0.0180172
3176.18	0.0172549
3185.83	0.018788
3195.47	0.0185061
3205.11	0.0184731
3214.75	0.018382
3224.4	0.0183102
3234.04	0.0188109
3243.68	0.0194085
3253.32	0.0184216
3262.97	0.0196029
3272.61	0.0209185
3282.25	0.0186063
3291.89	0.0188548
3301.53	0.0200157
3311.18	0.0192275
3320.82	0.0187246
3330.46	0.0193742
3340.1	0.018443
3349.75	0.0194325
3359.39	0.0211474
3369.03	0.021601
3378.67	0.020886
3388.32	0.0196605
3397.96	0.0223742
3407.6	0.0210892
3417.24	0.0210047
3426.89	0.0216061
3436.53	0.0200063
3446.17	0.0218868
3455.81	0.0219435
3465.45	0.0238151
3475.1	0.024801
3484.74	0.0240279
3494.38	0.0280066
3504.02	0.027254
3513.67	0.0299647
3523.31	0.0318726
3532.95	0.0345424
3542.59	0.0378803
3552.24	0.0402736
3561.88	0.0413536
3571.52	0.0401785
3581.16	0.0335305
3590.8	0.0231416
3600.45	0.0190219
3610.09	0.0155258
3619.73	0.0146652
3629.37	0.01419
3639.02	0.0165223
3648.66	0.0154646
3658.3	0.0142393
3667.94	0.0175086
3677.59	0.0134315
3687.23	0.0151236
3696.87	0.0168299
3706.51	0.0157745
3716.16	0.0151894
3725.8	0.0158665
3735.44	0.0167843
3745.08	0.0175205
3754.72	0.0159346
3764.37	0.0178855
3774.01	0.0178182
3783.65	0.0161646
3793.29	0.0183267
3802.94	0.0162886
3812.58	0.0165074
3822.22	0.0156783
3831.86	0.0166011
3841.51	0.0165288
3851.15	0.0168154
3860.79	0.0159686
3870.43	0.0187448
3880.07	0.016522
3889.72	0.0143789
3899.36	0.0165519
3909	0.0178423
3918.64	0.0174418
3928.29	0.0151562
3937.93	0.0181933
3947.57	0.0173918
3957.21	0.0155898
3966.86	0.0191153
3976.5	0.0181828
3986.14	0.0172046
3995.78	0.0207274
