Measurement: Infrared, Infrared Data Processed
Mineral: Epidote
Rruff sample: R050131
Ideal chemistry: Ca_2_Fe^3+^Al_2_(Si_2_O_7_)(SiO_4_)O(OH)
Locality: Calumet mine, Chaffee County, Colorado, USA
Source: Dave Bunk Minerals
Description: Green prismatic crystal
Measured chemistry: Ca_2.00_Al_2.00_(Fe^3+^_0.75_Al_0.25_)(SiO_4_)(Si_2_O_7_)O(OH)
x	intensity
50.1401	0.0209227
52.0686	0.0194249
53.9971	0.0210848
55.9255	0.024636
57.854	0.0262475
59.7825	0.038442
61.7109	0.032549
63.6394	0.034605
65.5679	0.0346348
67.4963	0.0362475
69.4248	0.037297
71.3533	0.0452398
73.2817	0.0450281
75.2102	0.0447047
77.1387	0.044049
79.0671	0.0462808
80.9956	0.0458125
82.9241	0.0481308
84.8525	0.0486172
86.781	0.0501178
88.7095	0.0503634
90.6379	0.0505722
92.5664	0.0496783
94.4948	0.0527013
96.4233	0.0530936
98.3518	0.0537796
100.28	0.0534099
102.209	0.0553445
104.137	0.0557865
106.066	0.0569858
107.994	0.0583945
109.923	0.060271
111.851	0.0587837
113.779	0.0577361
115.708	0.057695
117.636	0.0591965
119.565	0.0594287
121.493	0.0597386
123.422	0.0586569
125.35	0.0594768
127.279	0.0593315
129.207	0.0586054
131.136	0.0585129
133.064	0.0601701
134.993	0.0609385
136.921	0.0619014
138.85	0.061395
140.778	0.0597451
142.707	0.0560179
144.635	0.0529958
146.563	0.0504792
148.492	0.0499665
150.42	0.0499
152.349	0.050496
154.277	0.0506069
156.206	0.0513202
158.134	0.0511262
160.063	0.0512617
161.991	0.0523802
163.92	0.054693
165.848	0.0563999
167.777	0.0586208
169.705	0.0593688
171.633	0.0583096
173.562	0.0573724
175.49	0.0586837
177.419	0.0610636
179.347	0.0637976
181.276	0.0667351
183.204	0.069976
185.133	0.0717991
187.061	0.0725659
188.99	0.0721494
190.918	0.0718714
192.847	0.0729509
194.775	0.0754869
196.704	0.0771123
198.632	0.0788939
200.56	0.0803796
202.489	0.0820486
204.417	0.0825698
206.346	0.082437
208.274	0.0804959
210.203	0.0776061
212.131	0.0750468
214.06	0.0754389
215.988	0.077287
217.917	0.080763
219.845	0.0846878
221.774	0.0872642
223.702	0.087158
225.631	0.0864699
227.559	0.0849656
229.488	0.0835812
231.416	0.0815909
233.344	0.0796125
235.273	0.0784615
237.201	0.0793135
239.13	0.0809448
241.058	0.0835657
242.987	0.0866008
244.915	0.0892097
246.844	0.0906409
248.772	0.0919572
250.701	0.0928375
252.629	0.0933991
254.558	0.0921668
256.486	0.0901803
258.414	0.0884222
260.343	0.0875614
262.271	0.0874409
264.2	0.0880686
266.128	0.0882935
268.057	0.0886012
269.985	0.0884886
271.914	0.0892216
273.842	0.0902613
275.771	0.091732
277.699	0.0935141
279.628	0.0956898
281.556	0.0968337
283.485	0.0972707
285.413	0.097217
287.341	0.0972017
289.27	0.0958521
291.198	0.0939101
293.127	0.0917532
295.055	0.0904482
296.984	0.0897149
298.912	0.0888262
300.841	0.087581
302.769	0.0866126
304.698	0.0861991
306.626	0.0868791
308.555	0.0875343
310.483	0.0879392
312.411	0.088636
314.34	0.0896087
316.269	0.0902979
318.197	0.0911664
320.125	0.092375
322.054	0.0942097
323.982	0.0967571
325.911	0.0995559
327.839	0.101468
329.768	0.103232
331.696	0.104551
333.625	0.106646
335.553	0.108932
337.482	0.111483
339.41	0.113389
341.339	0.114595
343.267	0.115386
345.195	0.117033
347.124	0.118691
349.052	0.119899
350.981	0.120011
352.909	0.119422
354.838	0.117495
356.766	0.114741
358.695	0.112237
360.623	0.110546
362.552	0.109264
364.48	0.108887
366.409	0.110122
368.337	0.112704
370.265	0.11545
372.194	0.118223
374.122	0.120981
376.051	0.123214
377.979	0.124178
379.908	0.124831
381.836	0.124375
383.765	0.122685
385.693	0.120793
387.622	0.120121
389.55	0.120599
391.479	0.121922
393.407	0.122635
395.336	0.122585
397.264	0.121503
399.192	0.120003
401.121	0.118253
403.049	0.116545
404.978	0.11464
406.906	0.112649
408.835	0.110405
410.763	0.108093
412.692	0.104977
414.62	0.102045
416.549	0.0996598
418.477	0.0981604
420.406	0.0977137
422.334	0.097884
424.262	0.0983087
426.191	0.0990786
428.12	0.0995189
430.048	0.0999906
431.976	0.100459
433.905	0.100916
435.833	0.101448
437.762	0.102048
439.69	0.10259
441.619	0.103599
443.547	0.104932
445.476	0.106598
447.404	0.108235
449.333	0.110106
451.261	0.111583
453.19	0.111878
455.118	0.111145
457.046	0.109623
458.975	0.106634
460.903	0.103728
462.832	0.101666
464.76	0.100846
466.689	0.100492
468.617	0.100087
470.546	0.0992166
472.474	0.0978172
474.403	0.0956425
476.331	0.0935222
478.26	0.0918802
480.188	0.0913668
482.116	0.0918692
484.045	0.0933174
485.974	0.0954225
487.902	0.0982457
489.83	0.101463
491.759	0.105354
493.687	0.109123
495.616	0.112796
497.544	0.11641
499.473	0.119572
501.401	0.122462
503.33	0.124985
505.258	0.126884
507.187	0.128714
509.115	0.130218
511.043	0.131372
512.972	0.131775
514.9	0.131823
516.829	0.130827
518.757	0.129708
520.686	0.128138
522.614	0.126199
524.543	0.123986
526.471	0.121939
528.4	0.119529
530.328	0.117674
532.257	0.116256
534.185	0.114927
536.114	0.114135
538.042	0.113846
539.971	0.113277
541.899	0.113198
543.827	0.113307
545.756	0.113257
547.684	0.113141
549.613	0.113982
551.541	0.114506
553.47	0.114019
555.398	0.113581
557.327	0.11377
559.255	0.113352
561.184	0.112704
563.112	0.11218
565.041	0.111169
566.969	0.10988
568.898	0.108952
570.826	0.107819
572.755	0.106351
574.683	0.104435
576.611	0.102295
578.54	0.0997673
580.468	0.0976135
582.397	0.0957423
584.325	0.0938222
586.254	0.0918951
588.182	0.0905121
590.111	0.0891418
592.039	0.0879655
593.968	0.0867976
595.896	0.0858087
597.824	0.0839671
599.753	0.0815894
601.682	0.0796405
603.61	0.0781135
605.538	0.0768285
607.467	0.0767157
609.395	0.0773042
611.324	0.0789428
613.252	0.0812489
615.181	0.0842066
617.109	0.0879888
619.038	0.0921384
620.966	0.0962206
622.894	0.101307
624.823	0.106147
626.751	0.110842
628.68	0.114479
630.608	0.117621
632.537	0.1204
634.465	0.122777
636.394	0.124916
638.322	0.127095
640.251	0.128689
642.179	0.129398
644.108	0.129522
646.036	0.129091
647.965	0.127519
649.893	0.125058
651.822	0.122189
653.75	0.11944
655.678	0.116455
657.607	0.11372
659.535	0.111335
661.464	0.109103
663.392	0.106893
665.321	0.104547
667.249	0.102144
669.178	0.0992591
671.106	0.0959887
673.035	0.09343
674.963	0.0915475
676.892	0.0896189
678.82	0.0870389
680.749	0.0850306
682.677	0.0829857
684.606	0.0805604
686.534	0.0775354
688.462	0.0752852
690.391	0.0738653
692.319	0.072431
694.248	0.0702749
696.176	0.069093
698.105	0.0689243
700.033	0.0682809
