Measurement: Infrared, Infrared Data Processed
Mineral: Epidote
Rruff sample: R040092
Ideal chemistry: Ca_2_Fe^3+^Al_2_(Si_2_O_7_)(SiO_4_)O(OH)
Locality: Nahant, Massachusetts, USA
Source: University of Arizona Mineral Museum
Description: Green prismatic crystals imbedded in quartz
Measured chemistry: Ca_2.01_Al_2.00_Fe_1.00_(Si_1.00_O_4_)(Si_1.97_Fe_0.02_Al_0.01_Ti_0.01_O_7_)O(OH)
x	intensity
399.193	0
408.835	0.158797
418.477	0.137569
428.12	0.13979
437.762	0.156508
447.404	0.187603
457.047	0.173484
466.689	0.152137
476.331	0.12591
485.974	0.138015
495.616	0.17779
505.258	0.210294
514.901	0.204361
524.543	0.172972
534.185	0.147705
543.828	0.137092
553.47	0.134361
563.112	0.130124
572.755	0.117563
582.397	0.100265
592.039	0.0874758
601.682	0.0780767
611.324	0.0775248
620.966	0.110065
630.609	0.14382
640.251	0.163933
649.893	0.151427
659.536	0.120516
669.178	0.0963853
678.82	0.0766457
688.463	0.0556257
698.105	0.0431961
707.747	0.038499
717.39	0.0442849
727.032	0.0317896
736.674	0.0259746
746.317	0.0278976
755.959	0.0325109
765.601	0.040443
775.244	0.0534187
784.886	0.0627596
794.528	0.0799458
804.171	0.0952337
813.813	0.113315
823.455	0.14522
833.098	0.165308
842.74	0.162268
852.382	0.182974
862.025	0.192399
871.667	0.219571
881.309	0.223193
890.952	0.198522
900.594	0.181311
910.236	0.160799
919.879	0.162713
929.521	0.196928
939.163	0.232541
948.806	0.231758
958.448	0.185643
968.09	0.13631
977.733	0.0987469
987.375	0.0746484
997.017	0.0578037
1006.66	0.0519198
1016.3	0.059578
1025.94	0.0988886
1035.59	0.118811
1045.23	0.0929773
1054.87	0.0863072
1064.51	0.107607
1074.16	0.124768
1083.8	0.116388
1093.44	0.108344
1103.08	0.108736
1112.72	0.0946847
1122.37	0.0718465
1132.01	0.0481062
1141.65	0.0316649
1151.3	0.0236578
1160.94	0.0209293
1170.58	0.0181225
1180.22	0.015243
1189.86	0.0133626
1199.51	0.0116896
1209.15	0.00900821
1218.79	0.00714491
1228.43	0.00582526
1238.08	0.00536027
1247.72	0.00507618
1257.36	0.00484982
1267	0.00472309
1276.64	0.00470205
1286.29	0.00437677
1295.93	0.00439601
1305.57	0.00405185
1315.21	0.00429123
1324.86	0.00401078
1334.5	0.00433587
1344.14	0.00438783
1353.78	0.00455472
1363.43	0.00458947
1373.07	0.00482269
1382.71	0.00503711
1392.35	0.00525285
1401.99	0.00556276
1411.64	0.00571732
1421.28	0.00584122
1430.92	0.00590286
1440.57	0.00620109
1450.21	0.00637444
1459.85	0.0062867
1469.49	0.00624406
1479.13	0.00623685
1488.78	0.00634445
1498.42	0.00635862
1508.06	0.0066884
1517.7	0.00704673
1527.35	0.00706385
1536.99	0.00773986
1546.63	0.00839929
1556.27	0.00832621
1565.91	0.00835715
1575.56	0.00894339
1585.2	0.00865632
1594.84	0.00898393
1604.48	0.0090778
1614.13	0.00870577
1623.77	0.00908539
1633.41	0.00906648
1643.05	0.00889457
1652.7	0.00898093
1662.34	0.00881429
1671.98	0.0093578
1681.62	0.00944414
1691.27	0.00954303
1700.91	0.00949843
1710.55	0.00921691
1720.19	0.009221
1729.84	0.00953877
1739.48	0.00889199
1749.12	0.00905377
1758.76	0.00861749
1768.4	0.00890802
1778.05	0.00928791
1787.69	0.0093851
1797.33	0.00906932
1806.97	0.00844401
1816.62	0.00821582
1826.26	0.00890698
1835.9	0.00872697
1845.54	0.00864372
1855.18	0.00877824
1864.83	0.00871713
1874.47	0.00821276
1884.11	0.00801102
1893.75	0.0087916
1903.4	0.00872486
1913.04	0.00816727
1922.68	0.00760539
1932.32	0.00777273
1941.97	0.00689016
1951.61	0.00829601
1961.25	0.00649296
1970.89	0.00851345
1980.54	0.0109633
1990.18	0.0121666
1999.82	0.0108838
2009.46	0.0101426
2019.11	0.00931535
2028.75	0.0100382
2038.39	0.0111672
2048.03	0.00879116
2057.67	0.0105886
2067.32	0.00781661
2076.96	0.0108704
2086.6	0.00955029
2096.24	0.0115796
2105.89	0.0109175
2115.53	0.0125799
2125.17	0.00872452
2134.81	0.00725773
2144.45	0.00650412
2154.1	0.00392003
2163.74	0.00727799
2173.38	0.00780405
2183.02	0.00986851
2192.67	0.0104119
2202.31	0.00995414
2211.95	0.0125171
2221.59	0.0123727
2231.24	0.0113667
2240.88	0.0118335
2250.52	0.0135326
2260.16	0.0138467
2269.8	0.0147354
2279.45	0.0168283
2289.09	0.0159971
2298.73	0.0157577
2308.38	0.0149277
2318.02	0.0168574
2327.66	0.0156298
2337.3	0.0150544
2346.94	0.0158583
2356.59	0.0150712
2366.23	0.0152137
2375.87	0.0157797
2385.51	0.0149939
2395.16	0.0152994
2404.8	0.0144383
2414.44	0.0156515
2424.08	0.0157307
2433.72	0.0154991
2443.37	0.0165649
2453.01	0.0173385
2462.65	0.0159295
2472.29	0.0163026
2481.94	0.0171254
2491.58	0.0171429
2501.22	0.0173649
2510.86	0.0161673
2520.51	0.0167002
2530.15	0.0172279
2539.79	0.0172083
2549.43	0.0172281
2559.07	0.0167115
2568.72	0.0189012
2578.36	0.0180408
2588	0.0179078
2597.64	0.0173069
2607.29	0.0185565
2616.93	0.0190862
2626.57	0.0187569
2636.21	0.0181912
2645.86	0.0188438
2655.5	0.018481
2665.14	0.0175202
2674.78	0.0171984
2684.43	0.0179548
2694.07	0.0178628
2703.71	0.0177833
2713.35	0.0176903
2722.99	0.0179678
2732.64	0.0187441
2742.28	0.0181557
2751.92	0.0181714
2761.56	0.0187354
2771.21	0.0190231
2780.85	0.0186388
2790.49	0.0186411
2800.13	0.0186447
2809.78	0.0185657
2819.42	0.0188056
2829.06	0.0193271
2838.7	0.0190937
2848.34	0.0188959
2857.99	0.0192646
2867.63	0.0190149
2877.27	0.0188234
2886.91	0.0201441
2896.56	0.0194068
2906.2	0.0194292
2915.84	0.0193219
2925.48	0.0189704
2935.13	0.0196132
2944.77	0.0201527
2954.41	0.0193431
2964.05	0.0190836
2973.7	0.0202789
2983.34	0.0201567
2992.98	0.0197815
3002.62	0.0204371
3012.26	0.020707
3021.91	0.0205151
3031.55	0.0209966
3041.19	0.0226056
3050.83	0.0204532
3060.48	0.0221119
3070.12	0.0215701
3079.76	0.0229247
3089.4	0.0224127
3099.05	0.0228677
3108.69	0.0224265
3118.33	0.0234516
3127.97	0.0228903
3137.61	0.024276
3147.26	0.0235203
3156.9	0.0237789
3166.54	0.0270241
3176.18	0.0242705
3185.83	0.0256552
3195.47	0.0252405
3205.11	0.0250371
3214.75	0.026604
3224.4	0.0260333
3234.04	0.0271045
3243.68	0.0291355
3253.32	0.0276646
3262.97	0.0292673
3272.61	0.0313307
3282.25	0.0309863
3291.89	0.0299602
3301.53	0.0314837
3311.18	0.0331575
3320.82	0.0356671
3330.46	0.0379645
3340.1	0.0413657
3349.75	0.0453652
3359.39	0.0495356
3369.03	0.0524851
3378.67	0.0512954
3388.32	0.0422387
3397.96	0.0370107
3407.6	0.0291337
3417.24	0.0276081
3426.89	0.0266293
3436.53	0.023445
3446.17	0.0237489
3455.81	0.0243283
3465.45	0.023674
3475.1	0.0233534
3484.74	0.0231219
3494.38	0.0226244
3504.02	0.0226208
3513.67	0.0211188
3523.31	0.0207833
3532.95	0.021785
3542.59	0.0213607
3552.24	0.0228478
3561.88	0.0218057
3571.52	0.0221003
3581.16	0.0226626
3590.8	0.0202462
3600.45	0.0218911
3610.09	0.0217916
3619.73	0.0237847
3629.37	0.0208957
3639.02	0.0221076
3648.66	0.0205606
3658.3	0.0217939
3667.94	0.0211413
3677.59	0.0192534
3687.23	0.0228606
3696.87	0.0217889
3706.51	0.0202243
3716.16	0.0211825
3725.8	0.0202607
3735.44	0.0205262
3745.08	0.0201274
3754.72	0.0234985
3764.37	0.0232119
3774.01	0.0212308
3783.65	0.0207406
3793.29	0.022355
3802.94	0.0227853
3812.58	0.0215952
3822.22	0.0231511
3831.86	0.0227094
3841.51	0.0227318
3851.15	0.0213443
3860.79	0.0223494
3870.43	0.0211395
3880.07	0.0214989
3889.72	0.0221763
3899.36	0.0227236
3909	0.023967
3918.64	0.0233622
3928.29	0.023965
3937.93	0.0204566
3947.57	0.0229658
3957.21	0.0239002
3966.86	0.0204499
3976.5	0.0231096
3986.14	0.0253613
3995.78	0.0244405
