Measurement: Infrared, Infrared Data Processed
Mineral: Erythrite
Rruff sample: R050073
Ideal chemistry: Co^2+^_3_(As^5+^O_4_)_2_8H_2_O
Locality: Bou Azzer, Morocco
Source: Rock Currier
Description: Crimson flattened crystals
Measured chemistry: (Co_0.65_Mg_0.35_)_3_(As_1.00_O_4_)_2_Â·8H_2_O
x	intensity
399.193	0
408.835	0.250129
418.477	0.24196
428.12	0.230619
437.762	0.245116
447.404	0.249042
457.047	0.224241
466.689	0.189247
476.331	0.1643
485.974	0.165319
495.616	0.155256
505.258	0.142502
514.901	0.155342
524.543	0.178408
534.185	0.205388
543.828	0.231696
553.47	0.252902
563.112	0.259766
572.755	0.259084
582.397	0.254372
592.039	0.252579
601.682	0.251092
611.324	0.244816
620.966	0.230512
630.609	0.230525
640.251	0.243941
649.893	0.237585
659.536	0.227048
669.178	0.217079
678.82	0.208402
688.463	0.20003
698.105	0.193014
707.747	0.185609
717.39	0.180034
727.032	0.176525
736.674	0.175733
746.317	0.18049
755.959	0.191367
765.601	0.213752
775.244	0.235278
784.886	0.219785
794.528	0.185249
804.171	0.154036
813.813	0.15075
823.455	0.150112
833.098	0.141233
842.74	0.124187
852.382	0.102492
862.025	0.088974
871.667	0.082336
881.309	0.0786997
890.952	0.0747342
900.594	0.0665695
910.236	0.0553398
919.879	0.0464
929.521	0.0404795
939.163	0.0365815
948.806	0.0335115
958.448	0.030957
968.09	0.0292963
977.733	0.0283422
987.375	0.0278713
997.017	0.0281785
1006.66	0.0286854
1016.3	0.0290834
1025.94	0.0287633
1035.59	0.029246
1045.23	0.0295652
1054.87	0.0294138
1064.51	0.0296009
1074.16	0.0297756
1083.8	0.0288563
1093.44	0.0278849
1103.08	0.0270631
1112.72	0.0267046
1122.37	0.0257649
1132.01	0.0243566
1141.65	0.0235621
1151.3	0.0223615
1160.94	0.0213565
1170.58	0.0198837
1180.22	0.0195399
1189.86	0.0190991
1199.51	0.0177675
1209.15	0.0170004
1218.79	0.0163603
1228.43	0.01466
1238.08	0.0133824
1247.72	0.0122603
1257.36	0.0116164
1267	0.0108853
1276.64	0.0102008
1286.29	0.0101886
1295.93	0.00985071
1305.57	0.00977953
1315.21	0.0100259
1324.86	0.00981849
1334.5	0.00996461
1344.14	0.0100204
1353.78	0.010331
1363.43	0.0109091
1373.07	0.0117355
1382.71	0.010843
1392.35	0.0110844
1401.99	0.0114646
1411.64	0.0117964
1421.28	0.0121961
1430.92	0.0125225
1440.57	0.0127459
1450.21	0.0137958
1459.85	0.014133
1469.49	0.0139929
1479.13	0.0136842
1488.78	0.0145829
1498.42	0.0162271
1508.06	0.0172565
1517.7	0.0187167
1527.35	0.0212148
1536.99	0.0247569
1546.63	0.0301581
1556.27	0.0361173
1565.91	0.0417034
1575.56	0.0432408
1585.2	0.0413365
1594.84	0.037807
1604.48	0.0350405
1614.13	0.0336658
1623.77	0.0335377
1633.41	0.0330266
1643.05	0.0314086
1652.7	0.029655
1662.34	0.0288007
1671.98	0.0287751
1681.62	0.0289127
1691.27	0.0270186
1700.91	0.0229267
1710.55	0.0190012
1720.19	0.0167604
1729.84	0.0144744
1739.48	0.0116115
1749.12	0.0103487
1758.76	0.0110519
1768.4	0.0117092
1778.05	0.0109578
1787.69	0.0101814
1797.33	0.00937916
1806.97	0.00953803
1816.62	0.00913423
1826.26	0.00946536
1835.9	0.00997679
1845.54	0.0100195
1855.18	0.0103238
1864.83	0.0109436
1874.47	0.0106769
1884.11	0.0103114
1893.75	0.0112328
1903.4	0.0108098
1913.04	0.0119938
1922.68	0.0101708
1932.32	0.011203
1941.97	0.00960227
1951.61	0.0102413
1961.25	0.0102273
1970.89	0.00734614
1980.54	0.0118373
1990.18	0.0109968
1999.82	0.00889602
2009.46	0.0099644
2019.11	0.00875375
2028.75	0.0088888
2038.39	0.012012
2048.03	0.0114964
2057.67	0.0116644
2067.32	0.0124228
2076.96	0.0134261
2086.6	0.0133146
2096.24	0.0122008
2105.89	0.0137392
2115.53	0.0138444
2125.17	0.0138613
2134.81	0.013232
2144.45	0.0164403
2154.1	0.0125299
2163.74	0.0193801
2173.38	0.0168006
2183.02	0.0181685
2192.67	0.019825
2202.31	0.0205077
2211.95	0.0213448
2221.59	0.0200155
2231.24	0.0210644
2240.88	0.0210637
2250.52	0.0206317
2260.16	0.0211049
2269.8	0.0217698
2279.45	0.0215975
2289.09	0.0228385
2298.73	0.0232626
2308.38	0.0230542
2318.02	0.0237424
2327.66	0.0215064
2337.3	0.0223197
2346.94	0.0221258
2356.59	0.0218459
2366.23	0.0215788
2375.87	0.0213806
2385.51	0.0219959
2395.16	0.0218193
2404.8	0.0221458
2414.44	0.0221937
2424.08	0.0205571
2433.72	0.0227901
2443.37	0.0236163
2453.01	0.02271
2462.65	0.0229446
2472.29	0.0221704
2481.94	0.0224737
2491.58	0.0237523
2501.22	0.0236772
2510.86	0.0250429
2520.51	0.0235248
2530.15	0.0247891
2539.79	0.0251545
2549.43	0.0256077
2559.07	0.0261825
2568.72	0.0274867
2578.36	0.0282455
2588	0.0283566
2597.64	0.0287712
2607.29	0.030415
2616.93	0.0309872
2626.57	0.0316984
2636.21	0.0330148
2645.86	0.0340853
2655.5	0.0345084
2665.14	0.0352886
2674.78	0.0358634
2684.43	0.0370432
2694.07	0.0390073
2703.71	0.0408683
2713.35	0.0409537
2722.99	0.0437191
2732.64	0.0455753
2742.28	0.0469413
2751.92	0.0490944
2761.56	0.0509898
2771.21	0.0538082
2780.85	0.0562587
2790.49	0.0586147
2800.13	0.060351
2809.78	0.0639864
2819.42	0.0660773
2829.06	0.0687427
2838.7	0.0732198
2848.34	0.0744495
2857.99	0.0774523
2867.63	0.08218
2877.27	0.0871396
2886.91	0.0904458
2896.56	0.0952574
2906.2	0.101344
2915.84	0.107409
2925.48	0.111822
2935.13	0.11629
2944.77	0.123311
2954.41	0.13094
2964.05	0.137885
2973.7	0.143446
2983.34	0.149704
2992.98	0.156771
3002.62	0.162493
3012.26	0.167567
3021.91	0.171871
3031.55	0.173854
3041.19	0.173735
3050.83	0.171491
3060.48	0.169273
3070.12	0.165406
3079.76	0.162742
3089.4	0.157197
3099.05	0.152891
3108.69	0.150146
3118.33	0.146759
3127.97	0.143553
3137.61	0.143261
3147.26	0.142343
3156.9	0.141919
3166.54	0.142251
3176.18	0.143146
3185.83	0.141032
3195.47	0.140335
3205.11	0.136193
3214.75	0.132476
3224.4	0.127913
3234.04	0.122937
3243.68	0.117511
3253.32	0.113292
3262.97	0.110368
3272.61	0.105611
3282.25	0.103087
3291.89	0.0983233
3301.53	0.0972272
3311.18	0.093604
3320.82	0.0910049
3330.46	0.0890739
3340.1	0.0877147
3349.75	0.086966
3359.39	0.0850382
3369.03	0.0853876
3378.67	0.0852204
3388.32	0.0859964
3397.96	0.0903069
3407.6	0.0960989
3417.24	0.10561
3426.89	0.116808
3436.53	0.126291
3446.17	0.125217
3455.81	0.119771
3465.45	0.106176
3475.1	0.0913433
3484.74	0.0768449
3494.38	0.0661689
3504.02	0.0566066
3513.67	0.0511087
3523.31	0.0446443
3532.95	0.0403879
3542.59	0.036313
3552.24	0.0317875
3561.88	0.0307306
3571.52	0.0273734
3581.16	0.0249577
3590.8	0.022352
3600.45	0.0203676
3610.09	0.0193045
3619.73	0.0171624
3629.37	0.0165873
3639.02	0.0128714
3648.66	0.0138846
3658.3	0.0105882
3667.94	0.00981526
3677.59	0.00802863
3687.23	0.00725105
3696.87	0.00794471
3706.51	0.00713335
3716.16	0.00996315
3725.8	0.0066965
3735.44	0.010203
3745.08	0.00690737
3754.72	0.00936055
3764.37	0.00934229
3774.01	0.00967332
3783.65	0.00970698
3793.29	0.00759717
3802.94	0.00769817
3812.58	0.0110913
3822.22	0.00898961
3831.86	0.00810067
3841.51	0.00862007
3851.15	0.00855685
3860.79	0.00894696
3870.43	0.00524964
3880.07	0.00787504
3889.72	0.0116399
3899.36	0.00730313
3909	0.00879455
3918.64	0.00979431
3928.29	0.0087621
3937.93	0.00882799
3947.57	0.00805832
3957.21	0.0105693
3966.86	0.0106544
3976.5	0.00967809
3986.14	0.0108211
3995.78	0.00960868
