Measurement: Infrared, Infrared Data Processed
Mineral: Euclase
Rruff sample: R050623
Ideal chemistry: BeAlSiO_4_(OH)
Locality: Minas Gerais, Brazil
Source: Gemmological Center
Description: Colorless flattened prismatic crystal
Measured chemistry: Be_1.00_Al_1.00_Si_1.00_O_4_(OH) ; Be not measured but estimated by stoichiometry
x	intensity
399.193	0.211778
408.835	0.230284
418.477	0.242145
428.12	0.214983
437.762	0.195624
447.404	0.168079
457.047	0.141451
466.689	0.100572
476.331	0.176395
485.974	0.156598
495.616	0.141275
505.258	0.175496
514.901	0.204446
524.543	0.207725
534.185	0.184624
543.828	0.146363
553.47	0.0910455
563.112	0.147316
572.755	0.144181
582.397	0.202869
592.039	0.197135
601.682	0.127574
611.324	0.104886
620.966	0.0823205
630.609	0.139566
640.251	0.196631
649.893	0.205339
659.536	0.216953
669.178	0.187341
678.82	0.185388
688.463	0.139153
698.105	0.104635
707.747	0.0912031
717.39	0.0983781
727.032	0.140186
736.674	0.162471
746.317	0.154912
755.959	0.148734
765.601	0.171876
775.244	0.150242
784.886	0.149169
794.528	0.161162
804.171	0.12474
813.813	0.0796316
823.455	0.0467313
833.098	0.0540497
842.74	0.0885606
852.382	0.145977
862.025	0.214029
871.667	0.258455
881.309	0.283952
890.952	0.311059
900.594	0.309955
910.236	0.297632
919.879	0.259282
929.521	0.221299
939.163	0.19118
948.806	0.165294
958.448	0.14204
968.09	0.121584
977.733	0.103831
987.375	0.087356
997.017	0.0717969
1006.66	0.0537567
1016.3	0.0436168
1025.94	0.0507914
1035.59	0.0472848
1045.23	0.0424305
1054.87	0.0591813
1064.51	0.11255
1074.16	0.0977441
1083.8	0.0696983
1093.44	0.0524784
1103.08	0.0384626
1112.72	0.0269783
1122.37	0.0183117
1132.01	0.0125415
1141.65	0.00894872
1151.3	0.00712927
1160.94	0.00588509
1170.58	0.00533526
1180.22	0.00455099
1189.86	0.00416488
1199.51	0.00370677
1209.15	0.0033575
1218.79	0.00295615
1228.43	0.00306304
1238.08	0.00250978
1247.72	0.00239701
1257.36	0.00207359
1267	0.00261283
1276.64	0.00252783
1286.29	0.00223194
1295.93	0.00211806
1305.57	0.00216795
1315.21	0.00212132
1324.86	0.00185195
1334.5	0.00180826
1344.14	0.00233671
1353.78	0.00228934
1363.43	0.00210754
1373.07	0.00222947
1382.71	0.00209385
1392.35	0.00263163
1401.99	0.0027422
1411.64	0.00237567
1421.28	0.00245648
1430.92	0.00269468
1440.57	0.00245234
1450.21	0.0022834
1459.85	0.00173317
1469.49	0.00177528
1479.13	0.00292788
1488.78	0.00245488
1498.42	0.00260511
1508.06	0.00316141
1517.7	0.00292583
1527.35	0.00292165
1536.99	0.00275086
1546.63	0.00311066
1556.27	0.00331206
1565.91	0.00374931
1575.56	0.00323188
1585.2	0.00384629
1594.84	0.00303723
1604.48	0.00314215
1614.13	0.00329864
1623.77	0.00318332
1633.41	0.00332124
1643.05	0.0034095
1652.7	0.00349834
1662.34	0.00343701
1671.98	0.00303057
1681.62	0.00342616
1691.27	0.00340431
1700.91	0.00224855
1710.55	0.00196488
1720.19	0.00188418
1729.84	0.000859722
1739.48	0.000299709
1749.12	0.000148902
1758.76	0.001686
1768.4	0.00186304
1778.05	0.00227052
1787.69	0.00204916
1797.33	0.00243605
1806.97	0.00310699
1816.62	0.00258399
1826.26	0.00356127
1835.9	0.00299112
1845.54	0.00244374
1855.18	0.00308313
1864.83	0.00158899
1874.47	0.00287505
1884.11	0.00298583
1893.75	0.00240915
1903.4	0.00192111
1913.04	0.00168475
1922.68	0.00269491
1932.32	0.00156266
1941.97	0.00114226
1951.61	0.000119573
1961.25	0.000285653
1970.89	-0.000190078
1980.54	0.00161473
1990.18	0.000897285
1999.82	0.00298088
2009.46	0.00315427
2019.11	0.0027404
2028.75	9.88198e-05
2038.39	0.00627491
2048.03	0.000857955
2057.67	0.00331029
2067.32	0.00327004
2076.96	0.00311174
2086.6	0.00309046
2096.24	0.00199275
2105.89	0.0053402
2115.53	0.00401967
2125.17	0.00129945
2134.81	0.00219914
2144.45	-0.00193011
2154.1	-0.00281645
2163.74	0.00143611
2173.38	0.00151796
2183.02	0.00400961
2192.67	0.00234657
2202.31	0.00539618
2211.95	0.00321927
2221.59	0.00416554
2231.24	0.00711579
2240.88	0.00547537
2250.52	0.00494185
2260.16	0.00702851
2269.8	0.00590507
2279.45	0.00627912
2289.09	0.00740039
2298.73	0.00639732
2308.38	0.00657597
2318.02	0.00760983
2327.66	0.0064127
2337.3	0.00602863
2346.94	0.00645817
2356.59	0.00573195
2366.23	0.00644385
2375.87	0.00582287
2385.51	0.00784511
2395.16	0.00725209
2404.8	0.00626099
2414.44	0.00700987
2424.08	0.00689775
2433.72	0.00848779
2443.37	0.00878604
2453.01	0.00823195
2462.65	0.00719642
2472.29	0.00629037
2481.94	0.00827591
2491.58	0.00641152
2501.22	0.00633855
2510.86	0.00650651
2520.51	0.00829461
2530.15	0.0072442
2539.79	0.00993407
2549.43	0.00809194
2559.07	0.00916911
2568.72	0.00833415
2578.36	0.00718145
2588	0.00734796
2597.64	0.00955987
2607.29	0.00898164
2616.93	0.00838077
2626.57	0.00936892
2636.21	0.00853484
2645.86	0.00937185
2655.5	0.00900716
2665.14	0.00825658
2674.78	0.00771916
2684.43	0.00835484
2694.07	0.00831733
2703.71	0.00900143
2713.35	0.00858564
2722.99	0.00935149
2732.64	0.00904371
2742.28	0.00924471
2751.92	0.00900288
2761.56	0.0090884
2771.21	0.00908985
2780.85	0.00909907
2790.49	0.00930078
2800.13	0.00943295
2809.78	0.0104964
2819.42	0.0101138
2829.06	0.0101142
2838.7	0.00921274
2848.34	0.0114511
2857.99	0.0095038
2867.63	0.0110115
2877.27	0.0101082
2886.91	0.0102548
2896.56	0.00921987
2906.2	0.00985707
2915.84	0.0116927
2925.48	0.0102567
2935.13	0.0111941
2944.77	0.011194
2954.41	0.00927318
2964.05	0.0117107
2973.7	0.0117725
2983.34	0.0119828
2992.98	0.0107816
3002.62	0.0110422
3012.26	0.0114035
3021.91	0.01016
3031.55	0.0111508
3041.19	0.0113796
3050.83	0.0124836
3060.48	0.0118819
3070.12	0.0106963
3079.76	0.0128789
3089.4	0.0134576
3099.05	0.0105921
3108.69	0.00766236
3118.33	0.00950562
3127.97	0.0125256
3137.61	0.0115881
3147.26	0.0141406
3156.9	0.0126501
3166.54	0.0142846
3176.18	0.0123973
3185.83	0.011157
3195.47	0.0151016
3205.11	0.0124608
3214.75	0.0130629
3224.4	0.0129229
3234.04	0.012369
3243.68	0.0103362
3253.32	0.0142886
3262.97	0.0145669
3272.61	0.0114454
3282.25	0.0133933
3291.89	0.0134464
3301.53	0.0134016
3311.18	0.0165123
3320.82	0.0129124
3330.46	0.0140191
3340.1	0.0144087
3349.75	0.0167985
3359.39	0.0131342
3369.03	0.0116635
3378.67	0.0174671
3388.32	0.0154737
3397.96	0.0125528
3407.6	0.0130581
3417.24	0.0125965
3426.89	0.0159475
3436.53	0.0147986
3446.17	0.0114765
3455.81	0.0124543
3465.45	0.0138353
3475.1	0.01809
3484.74	0.0154436
3494.38	0.01557
3504.02	0.0175469
3513.67	0.019326
3523.31	0.0183838
3532.95	0.0220749
3542.59	0.0262499
3552.24	0.0312086
3561.88	0.0486312
3571.52	0.12783
3581.16	0.117814
3590.8	0.0154075
3600.45	0.00908723
3610.09	0.00835678
3619.73	0.00996549
3629.37	0.00589585
3639.02	0.0116795
3648.66	0.00734941
3658.3	0.00887435
3667.94	0.010462
3677.59	0.0143684
3687.23	0.0126943
3696.87	0.0106826
3706.51	0.00839392
3716.16	0.0103647
3725.8	0.0112598
3735.44	0.0156205
3745.08	0.0130106
3754.72	0.0117378
3764.37	0.0147927
3774.01	0.00830834
3783.65	0.0148308
3793.29	0.0119434
3802.94	0.015188
3812.58	0.0129946
3822.22	0.014518
3831.86	0.0136385
3841.51	0.0125119
3851.15	0.0124375
3860.79	0.0129466
3870.43	0.0130848
3880.07	0.0112599
3889.72	0.0135497
3899.36	0.021158
3909	0.01333
3918.64	0.0165291
3928.29	0.0170146
3937.93	0.014292
3947.57	0.0121799
3957.21	0.0134012
3966.86	0.0152112
3976.5	0.0153918
3986.14	0.0128341
3995.78	0.016679
