Measurement: Infrared, Infrared Data Processed
Mineral: Eudialyte
Rruff sample: R050230
Ideal chemistry: Na_15_Ca_6_Fe^2+^_3_Zr^4+^_3_Si(Si_25_O_73_)(O,OH,H_2_O)_3_(Cl,OH)_2_
Locality: Kipawa alkaline complex, near Sheffield Lake, Villedieu Township, Temiscamingue County, Quebec, Canada
Source: Marcus Origlieri
Description: Massive aggregate of red crystals
Measured chemistry: (Na_14.50_K_0.35_Ca_0.15_)_Σ=15_Ca_6.00_(Fe_1.86_Mn_1.01_Mg_0.13_)_Σ=3_(Zr_2.91_Ti_0.09_)_3_(Si_0.94_Nb_0.06_)_Σ=1.00_(Si_25.00_O_73_)(OH)_1.10_(H_2_O)_1.90_)_Σ=3_(Cl_1.17_(OH)_0.83_)_Σ=2_
x	intensity
50.1401	0.00311315
52.0686	0.00282573
53.9971	0.00475649
55.9255	0.00518856
57.854	0.00828649
59.7825	0.00779405
61.7109	0.00734967
63.6394	0.00774924
65.5679	0.00672424
67.4963	0.00754944
69.4248	0.00820148
71.3533	0.00736549
73.2817	0.00697323
75.2102	0.00810843
77.1387	0.00999967
79.0671	0.0112448
80.9956	0.010716
82.9241	0.00953484
84.8525	0.00959272
86.781	0.00964893
88.7095	0.00998593
90.6379	0.011004
92.5664	0.0109118
94.4948	0.0109233
96.4233	0.0121833
98.3518	0.0124822
100.28	0.0126606
102.209	0.0132126
104.137	0.0130161
106.066	0.0127683
107.994	0.0124652
109.923	0.0122504
111.851	0.0131509
113.779	0.0142103
115.708	0.0145394
117.636	0.0145701
119.565	0.0146733
121.493	0.0149486
123.422	0.0154505
125.35	0.0155906
127.279	0.0160337
129.207	0.0166001
131.136	0.0176598
133.064	0.0183739
134.993	0.0187611
136.921	0.0191937
138.85	0.0197299
140.778	0.0193883
142.707	0.0191872
144.635	0.01877
146.563	0.0191296
148.492	0.0196906
150.42	0.0199854
152.349	0.0201384
154.277	0.0198266
156.206	0.0197905
158.134	0.0201844
160.063	0.0206812
161.991	0.0211525
163.92	0.0215404
165.848	0.0214276
167.777	0.0212587
169.705	0.0215309
171.633	0.0216894
173.562	0.022284
175.49	0.0226676
177.419	0.0224685
179.347	0.0226608
181.276	0.0233452
183.204	0.0234398
185.133	0.0236537
187.061	0.023863
188.99	0.0239807
190.918	0.0241954
192.847	0.0247558
194.775	0.025136
196.704	0.0253187
198.632	0.0255646
200.56	0.0256754
202.489	0.0260139
204.417	0.0266264
206.346	0.0272712
208.274	0.0280125
210.203	0.0286912
212.131	0.0290651
214.06	0.0294284
215.988	0.030209
217.917	0.0309852
219.845	0.0316745
221.774	0.0320128
223.702	0.0323302
225.631	0.0334308
227.559	0.0342896
229.488	0.0345246
231.416	0.0346784
233.344	0.035242
235.273	0.0359038
237.201	0.0360546
239.13	0.0362313
241.058	0.0366677
242.987	0.037093
244.915	0.0368896
246.844	0.0367651
248.772	0.0365326
250.701	0.0363608
252.629	0.0361904
254.558	0.0358401
256.486	0.0357366
258.414	0.0355565
260.343	0.0353385
262.271	0.0352826
264.2	0.035374
266.128	0.035709
268.057	0.0360398
269.985	0.0360241
271.914	0.0360989
273.842	0.0367914
275.771	0.0373055
277.699	0.0375242
279.628	0.0380055
281.556	0.0385798
283.485	0.0391933
285.413	0.0398669
287.341	0.0405962
289.27	0.0408953
291.198	0.0408269
293.127	0.0411165
295.055	0.0419548
296.984	0.0425474
298.912	0.0429057
300.841	0.0439218
302.769	0.0446226
304.698	0.0449918
306.626	0.045124
308.555	0.0451581
310.483	0.0453332
312.411	0.0452742
314.34	0.0446259
316.269	0.043991
318.197	0.0432857
320.125	0.0424793
322.054	0.0418082
323.982	0.0413884
325.911	0.0409065
327.839	0.0407336
329.768	0.0410061
331.696	0.0414089
333.625	0.0418728
335.553	0.0420428
337.482	0.042234
339.41	0.0425231
341.339	0.0425591
343.267	0.0430305
345.195	0.0433221
347.124	0.0430563
349.052	0.0429588
350.981	0.0429596
352.909	0.042915
354.838	0.0429524
356.766	0.0431532
358.695	0.043164
360.623	0.0431698
362.552	0.0433729
364.48	0.0438132
366.409	0.0442169
368.337	0.0443817
370.265	0.0445627
372.194	0.0448407
374.122	0.0449679
376.051	0.0445778
377.979	0.0437614
379.908	0.0428468
381.836	0.0419593
383.765	0.0412416
385.693	0.0409768
387.622	0.040487
389.55	0.0401717
391.479	0.0402738
393.407	0.0402551
395.336	0.0400561
397.264	0.0399712
399.192	0.0397483
401.121	0.0397383
403.049	0.0397347
404.978	0.0397058
406.906	0.0398001
408.835	0.0397187
410.763	0.0397135
412.692	0.0398245
414.62	0.0403759
416.549	0.0407719
418.477	0.0410482
420.406	0.041504
422.334	0.0421652
424.262	0.0429009
426.191	0.0435889
428.12	0.0441411
430.048	0.0448753
431.976	0.046124
433.905	0.0475306
435.833	0.0490354
437.762	0.0502187
439.69	0.0520489
441.619	0.0539748
443.547	0.0556435
445.476	0.0572197
447.404	0.0587014
449.333	0.0596746
451.261	0.0601842
453.19	0.059884
455.118	0.0592749
457.046	0.0586283
458.975	0.0578676
460.903	0.056987
462.832	0.0568728
464.76	0.0573011
466.689	0.0576512
468.617	0.0580176
470.546	0.0585623
472.474	0.0595659
474.403	0.0608898
476.331	0.0619832
478.26	0.0629843
480.188	0.0637039
482.116	0.0643356
484.045	0.0643304
485.974	0.0638734
487.902	0.0633774
489.83	0.0620836
491.759	0.0601672
493.687	0.0576709
495.616	0.0553281
497.544	0.0533074
499.473	0.0513695
501.401	0.0499015
503.33	0.0484838
505.258	0.0470058
507.187	0.0457773
509.115	0.0445661
511.043	0.0438194
512.972	0.0438828
514.9	0.0440495
516.829	0.0447615
518.757	0.0461462
520.686	0.0468131
522.614	0.0469658
524.543	0.0474
526.471	0.0473944
528.4	0.0469111
530.328	0.0461581
532.257	0.045382
534.185	0.0449898
536.114	0.0446081
538.042	0.0440876
539.971	0.0435657
541.899	0.0429565
543.827	0.0426803
545.756	0.0426826
547.684	0.0420384
549.613	0.0408479
551.541	0.0399029
553.47	0.0390952
555.398	0.0380393
557.327	0.0371909
559.255	0.0371051
561.184	0.0370698
563.112	0.0368313
565.041	0.0360385
566.969	0.0350747
568.898	0.0346434
570.826	0.0345032
572.755	0.0348505
574.683	0.0354347
576.611	0.0351737
578.54	0.0350808
580.468	0.03546
582.397	0.0353623
584.325	0.0352412
586.254	0.035224
588.182	0.0349289
590.111	0.0351486
592.039	0.0348089
593.968	0.034199
595.896	0.0342236
597.824	0.0342717
599.753	0.0338734
601.682	0.0333658
603.61	0.0332364
605.538	0.0333722
607.467	0.0333493
609.395	0.0336747
611.324	0.0340099
613.252	0.0339448
615.181	0.0343887
617.109	0.0347563
619.038	0.03443
620.966	0.0348172
622.894	0.035374
624.823	0.0355943
626.751	0.0366628
628.68	0.0386304
630.608	0.0404268
632.537	0.0414675
634.465	0.0418693
636.394	0.0421524
638.322	0.0426907
640.251	0.0439045
642.179	0.0447297
644.108	0.0450703
646.036	0.0459188
647.965	0.0471093
649.893	0.0479914
651.822	0.0485782
653.75	0.048864
655.678	0.0493216
657.607	0.0497244
659.535	0.0497685
661.464	0.0495329
663.392	0.0492973
665.321	0.0496294
667.249	0.0501514
669.178	0.0504836
671.106	0.0509603
673.035	0.0517901
674.963	0.0521071
676.892	0.0520074
678.82	0.0521068
680.749	0.0523056
682.677	0.0524068
684.606	0.0528011
686.534	0.0534575
688.462	0.0535379
690.391	0.053549
692.319	0.0542845
694.248	0.0558182
696.176	0.0562205
698.105	0.0558878
700.033	0.0563787
