Measurement: Infrared, Infrared Data Processed
Mineral: Eudialyte
Rruff sample: R060035
Ideal chemistry: Na_15_Ca_6_Fe^2+^_3_Zr^4+^_3_Si(Si_25_O_73_)(O,OH,H_2_O)_3_(Cl,OH)_2_
Locality: Chibini, Kola Peninsula, Russia
Source: University of Arizona Mineral Museum
Description: Deep pink coarsely crystalline
Measured chemistry: (Na_14.86_K_0.14_)_Σ=15_Ca_6.00_(Fe_1.52_Mn_1.48_)_Σ=3_(Zr_2.82_Ti_0.18_)_Σ=3_(Si_0.93_Nb_0.07_)_Σ=1_(Si_25.00_O_73_)((OH)_1.01_(H_2_O)_1.99_)_Σ=3_(Cl_1.65_(OH)_0.35_)_Σ=2_
x	intensity
399.193	0.0775223
408.835	0.0735965
418.477	0.0843195
428.12	0.103627
437.762	0.145741
447.404	0.194165
457.047	0.164881
466.689	0.154821
476.331	0.162149
485.974	0.141048
495.616	0.0963059
505.258	0.065141
514.901	0.0636136
524.543	0.0761128
534.185	0.0749362
543.828	0.0686784
553.47	0.0493165
563.112	0.0346848
572.755	0.0289369
582.397	0.0271309
592.039	0.0234379
601.682	0.0226527
611.324	0.0239255
620.966	0.0252095
630.609	0.0292501
640.251	0.0362049
649.893	0.0502331
659.536	0.0562171
669.178	0.0518284
678.82	0.0557426
688.463	0.0673087
698.105	0.0718195
707.747	0.0645968
717.39	0.0646421
727.032	0.0971252
736.674	0.132049
746.317	0.0992112
755.959	0.0605264
765.601	0.0429252
775.244	0.0358465
784.886	0.0357874
794.528	0.0355187
804.171	0.0376304
813.813	0.0435106
823.455	0.0524423
833.098	0.0644489
842.74	0.0799631
852.382	0.097604
862.025	0.120402
871.667	0.151832
881.309	0.186923
890.952	0.228485
900.594	0.257185
910.236	0.270365
919.879	0.287026
929.521	0.295192
939.163	0.279944
948.806	0.258473
958.448	0.260669
968.09	0.268736
977.733	0.252884
987.375	0.240646
997.017	0.234405
1006.66	0.230056
1016.3	0.225378
1025.94	0.201368
1035.59	0.172024
1045.23	0.148122
1054.87	0.127479
1064.51	0.107976
1074.16	0.0950983
1083.8	0.0814823
1093.44	0.0608427
1103.08	0.0467066
1112.72	0.0370709
1122.37	0.030875
1132.01	0.0270318
1141.65	0.0239733
1151.3	0.0201816
1160.94	0.0165992
1170.58	0.0131768
1180.22	0.0103653
1189.86	0.00848476
1199.51	0.00705218
1209.15	0.00573184
1218.79	0.00490439
1228.43	0.00410359
1238.08	0.00386912
1247.72	0.00336263
1257.36	0.00318255
1267	0.00305464
1276.64	0.00327641
1286.29	0.00296261
1295.93	0.00292787
1305.57	0.00301779
1315.21	0.00288125
1324.86	0.00300007
1334.5	0.00322872
1344.14	0.00353207
1353.78	0.00391278
1363.43	0.00440299
1373.07	0.00517988
1382.71	0.00581233
1392.35	0.00673095
1401.99	0.00752193
1411.64	0.0083033
1421.28	0.00843392
1430.92	0.00870397
1440.57	0.00873776
1450.21	0.0088237
1459.85	0.00863733
1469.49	0.00880844
1479.13	0.00910289
1488.78	0.00902015
1498.42	0.00901639
1508.06	0.00823427
1517.7	0.00783601
1527.35	0.00721931
1536.99	0.00651577
1546.63	0.00651506
1556.27	0.00605129
1565.91	0.00579973
1575.56	0.00554016
1585.2	0.00567921
1594.84	0.00595482
1604.48	0.00599284
1614.13	0.00603472
1623.77	0.00623412
1633.41	0.00647936
1643.05	0.00654677
1652.7	0.00573225
1662.34	0.00594427
1671.98	0.00549731
1681.62	0.00500715
1691.27	0.00486143
1700.91	0.00397606
1710.55	0.0042251
1720.19	0.00410812
1729.84	0.00384122
1739.48	0.00327071
1749.12	0.00273035
1758.76	0.00283457
1768.4	0.0030316
1778.05	0.00309283
1787.69	0.0029533
1797.33	0.00274634
1806.97	0.00268361
1816.62	0.00217873
1826.26	0.00234522
1835.9	0.00233776
1845.54	0.00230134
1855.18	0.00222084
1864.83	0.00166324
1874.47	0.00173645
1884.11	0.00165553
1893.75	0.00201865
1903.4	0.00168633
1913.04	0.00118376
1922.68	0.00160299
1932.32	0.000833832
1941.97	0.000254247
1951.61	0.000809965
1961.25	0.000665499
1970.89	0.000372206
1980.54	0.00130524
1990.18	0.00132262
1999.82	0.000646517
2009.46	0.00115258
2019.11	-6.40803e-05
2028.75	-0.000357731
2038.39	0.000896217
2048.03	0.00242911
2057.67	0.00323233
2067.32	0.00283594
2076.96	0.00302581
2086.6	0.0028063
2096.24	0.00321409
2105.89	0.00366157
2115.53	0.00359049
2125.17	0.00319716
2134.81	0.00206248
2144.45	0.00276451
2154.1	0.00149407
2163.74	0.00677018
2173.38	0.00359582
2183.02	0.00578824
2192.67	0.00555552
2202.31	0.00548691
2211.95	0.0055582
2221.59	0.00592101
2231.24	0.00587542
2240.88	0.00601368
2250.52	0.00560174
2260.16	0.00644257
2269.8	0.00616878
2279.45	0.00692288
2289.09	0.00637008
2298.73	0.0052828
2308.38	0.00553444
2318.02	0.00565055
2327.66	0.00474269
2337.3	0.00428061
2346.94	0.00485564
2356.59	0.00427606
2366.23	0.00387342
2375.87	0.00459709
2385.51	0.0049205
2395.16	0.00516782
2404.8	0.00509499
2414.44	0.00533797
2424.08	0.00528681
2433.72	0.005297
2443.37	0.00537504
2453.01	0.00609419
2462.65	0.00574352
2472.29	0.0052375
2481.94	0.00522257
2491.58	0.00592498
2501.22	0.00570413
2510.86	0.00595715
2520.51	0.00599584
2530.15	0.0059184
2539.79	0.00616055
2549.43	0.0061787
2559.07	0.00582025
2568.72	0.00644418
2578.36	0.00660408
2588	0.00646682
2597.64	0.00680089
2607.29	0.00689604
2616.93	0.0068025
2626.57	0.0069049
2636.21	0.00677018
2645.86	0.00690592
2655.5	0.00681367
2665.14	0.00630507
2674.78	0.00647459
2684.43	0.00619954
2694.07	0.0068159
2703.71	0.0063318
2713.35	0.0065174
2722.99	0.00646512
2732.64	0.00690745
2742.28	0.00709676
2751.92	0.00700674
2761.56	0.00697271
2771.21	0.00683069
2780.85	0.00701325
2790.49	0.00692156
2800.13	0.00681621
2809.78	0.00729631
2819.42	0.00722039
2829.06	0.00699067
2838.7	0.00703375
2848.34	0.00603152
2857.99	0.00582135
2867.63	0.00646209
2877.27	0.00718977
2886.91	0.00710916
2896.56	0.00706252
2906.2	0.00683995
2915.84	0.00567043
2925.48	0.00496874
2935.13	0.00562259
2944.77	0.00677542
2954.41	0.00691252
2964.05	0.00757475
2973.7	0.00761373
2983.34	0.00787198
2992.98	0.00791955
3002.62	0.00854635
3012.26	0.00886635
3021.91	0.00832608
3031.55	0.00877836
3041.19	0.00912999
3050.83	0.00878328
3060.48	0.00919223
3070.12	0.00959551
3079.76	0.00973026
3089.4	0.00949944
3099.05	0.00964159
3108.69	0.00956441
3118.33	0.00996788
3127.97	0.0102329
3137.61	0.01042
3147.26	0.0112132
3156.9	0.0103801
3166.54	0.0110587
3176.18	0.0107548
3185.83	0.0114508
3195.47	0.0117717
3205.11	0.0113371
3214.75	0.0113709
3224.4	0.0115058
3234.04	0.0113688
3243.68	0.0112227
3253.32	0.0111868
3262.97	0.0117465
3272.61	0.0116509
3282.25	0.0112421
3291.89	0.0115747
3301.53	0.0118456
3311.18	0.0119933
3320.82	0.0116255
3330.46	0.0118217
3340.1	0.0121901
3349.75	0.0120556
3359.39	0.0116644
3369.03	0.0114327
3378.67	0.0112661
3388.32	0.011965
3397.96	0.011968
3407.6	0.0115002
3417.24	0.0114392
3426.89	0.0106916
3436.53	0.0112805
3446.17	0.0112567
3455.81	0.0110346
3465.45	0.0106252
3475.1	0.0107398
3484.74	0.0103199
3494.38	0.00978638
3504.02	0.0101653
3513.67	0.0100165
3523.31	0.00964925
3532.95	0.0102787
3542.59	0.00940527
3552.24	0.00954754
3561.88	0.00986087
3571.52	0.0100968
3581.16	0.0087571
3590.8	0.00897333
3600.45	0.00834487
3610.09	0.00790323
3619.73	0.00715031
3629.37	0.00529539
3639.02	0.00593736
3648.66	0.00578918
3658.3	0.00527087
3667.94	0.00529576
3677.59	0.00498233
3687.23	0.00509333
3696.87	0.00571493
3706.51	0.00519024
3716.16	0.00624099
3725.8	0.0058644
3735.44	0.00546377
3745.08	0.0050795
3754.72	0.00589648
3764.37	0.00584304
3774.01	0.00540579
3783.65	0.00575336
3793.29	0.0057287
3802.94	0.00568437
3812.58	0.0053988
3822.22	0.00577847
3831.86	0.00612044
3841.51	0.00439411
3851.15	0.00504246
3860.79	0.00531949
3870.43	0.00604597
3880.07	0.00531499
3889.72	0.00559088
3899.36	0.00563502
3909	0.00509605
3918.64	0.00590696
3928.29	0.00542168
3937.93	0.00467606
3947.57	0.00474323
3957.21	0.00530513
3966.86	0.00557964
3976.5	0.00686066
3986.14	0.00443037
3995.78	0.00655952
