Measurement: Infrared, Infrared Data Processed
Mineral: Ferro-pargasite
Rruff sample: R090015
Ideal chemistry: NaCa_2_(Fe^2+^_4_Al)(Si_6_Al_2_)O_22_(OH)_2_
Locality: Basha Valley, Skardu District, Baltistan, Northern Areas, Pakistan
Source: Herb Obodda
Description: Black bladed single crystal with striations
x	intensity
374.123	0.278547
383.765	0.283703
393.407	0.292332
403.05	0.294261
412.692	0.291185
422.334	0.301039
431.976	0.299973
441.619	0.298283
451.261	0.295743
460.904	0.273412
470.546	0.236438
480.188	0.204916
489.83	0.194365
499.473	0.199371
509.115	0.194665
518.758	0.179946
528.4	0.16149
538.042	0.136826
547.684	0.107408
557.327	0.0835567
566.969	0.066199
576.611	0.0563206
586.254	0.05562
595.896	0.0613383
605.538	0.0700377
615.181	0.0757783
624.823	0.0756847
634.466	0.0743337
644.108	0.074241
653.75	0.0803548
663.393	0.0876557
673.035	0.0920915
682.677	0.0826358
692.319	0.077107
701.962	0.0709466
711.604	0.0680729
721.246	0.0748358
730.889	0.0824223
740.531	0.0781841
750.173	0.0773374
759.816	0.0840474
769.458	0.0986836
779.101	0.113289
788.743	0.123565
798.385	0.124035
808.028	0.119419
817.67	0.125923
827.312	0.153797
836.955	0.198006
846.597	0.248863
856.239	0.286358
865.881	0.306246
875.524	0.315964
885.166	0.331562
894.808	0.354755
904.451	0.381901
914.093	0.394892
923.736	0.396252
933.378	0.386505
943.02	0.366351
952.663	0.341764
962.305	0.317823
971.947	0.290679
981.59	0.254819
991.232	0.216107
1000.87	0.183643
1010.52	0.165109
1020.16	0.16014
1029.8	0.157789
1039.44	0.153992
1049.09	0.146044
1058.73	0.12908
1068.37	0.113114
1078.01	0.0988622
1087.65	0.0835339
1097.3	0.0666986
1106.94	0.0520504
1116.58	0.0379552
1126.22	0.0245889
1135.87	0.0144116
1145.51	0.00993745
1155.15	0.00785483
1164.79	0.00638118
1174.44	0.00560768
1184.08	0.00463721
1193.72	0.00403286
1203.36	0.00361186
1213.01	0.00333818
1222.65	0.00307895
1232.29	0.00304609
1241.93	0.00283076
1251.58	0.00273143
1261.22	0.00257787
1270.86	0.0026552
1280.5	0.00269854
1290.14	0.00226142
1299.79	0.00240319
1309.43	0.0026453
1319.07	0.00291905
1328.71	0.00277535
1338.36	0.00297646
1348	0.00324096
1357.64	0.00344108
1367.28	0.00378586
1376.92	0.0042883
1386.57	0.004629
1396.21	0.00521026
1405.85	0.00570405
1415.49	0.00603466
1425.14	0.00624693
1434.78	0.00626542
1444.42	0.00608157
1454.06	0.00622089
1463.71	0.00606431
1473.35	0.00647723
1482.99	0.00613929
1492.63	0.00633438
1502.28	0.00648055
1511.92	0.00642651
1521.56	0.00665857
1531.2	0.00634243
1540.85	0.00679009
1550.49	0.00598454
1560.13	0.00676818
1569.77	0.00596989
1579.41	0.00596355
1589.06	0.00574429
1598.7	0.0060317
1608.34	0.00598575
1617.98	0.00644538
1627.63	0.00632377
1637.27	0.00649829
1646.91	0.00660802
1656.55	0.0060549
1666.19	0.00591573
1675.84	0.00575477
1685.48	0.00587204
1695.12	0.00585337
1704.77	0.00486196
1714.41	0.00479947
1724.05	0.00441545
1733.69	0.0050499
1743.33	0.00364004
1752.98	0.00351815
1762.62	0.00366198
1772.26	0.0040542
1781.9	0.00321104
1791.55	0.00357353
1801.19	0.00337057
1810.83	0.00316151
1820.47	0.00314041
1830.12	0.00331271
1839.76	0.00300223
1849.4	0.00285522
1859.04	0.00236978
1868.68	0.00279611
1878.33	0.00236568
1887.97	0.00254707
1897.61	0.00278549
1907.25	0.00215069
1916.9	0.00212011
1926.54	0.00145375
1936.18	0.00129054
1945.82	0.00104168
1955.46	0.000730148
1965.11	0.000669862
1974.75	0.0012937
1984.39	0.00295622
1994.04	0.00334162
2003.68	0.00183705
2013.32	0.00269454
2022.96	0.00276933
2032.6	0.00340712
2042.25	0.00493927
2051.89	0.00532628
2061.53	0.0029568
2071.17	0.00409364
2080.82	0.00421476
2090.46	0.00368291
2100.1	0.00468769
2109.74	0.00512757
2119.39	0.00407561
2129.03	0.00239815
2138.67	0.00419008
2148.31	0.00261598
2157.95	0.00492591
2167.6	0.00838834
2177.24	0.00783073
2186.88	0.0080678
2196.52	0.00866778
2206.17	0.00829802
2215.81	0.00804863
2225.45	0.00914841
2235.09	0.00943051
2244.74	0.00898135
2254.38	0.00921342
2264.02	0.00932556
2273.66	0.00936217
2283.3	0.0101811
2292.95	0.0099274
2302.59	0.00916044
2312.23	0.00970454
2321.87	0.0111497
2331.52	0.00989305
2341.16	0.00958671
2350.8	0.00882531
2360.44	0.0102116
2370.09	0.00909953
2379.73	0.00824356
2389.37	0.00847194
2399.01	0.00800771
2408.66	0.00899436
2418.3	0.00821311
2427.94	0.00864958
2437.58	0.00830206
2447.22	0.00927628
2456.87	0.00924985
2466.51	0.00949771
2476.15	0.00940787
2485.79	0.00852364
2495.44	0.00901658
2505.08	0.0101207
2514.72	0.00939677
2524.36	0.010129
2534.01	0.0100939
2543.65	0.00999482
2553.29	0.0106327
2562.93	0.010616
2572.57	0.0105328
2582.22	0.0108356
2591.86	0.0104834
2601.5	0.0107139
2611.14	0.0111381
2620.79	0.0113415
2630.43	0.011218
2640.07	0.0112214
2649.71	0.0114125
2659.36	0.0106786
2669	0.0102132
2678.64	0.0104523
2688.28	0.0104257
2697.93	0.010648
2707.57	0.0106472
2717.21	0.0108847
2726.85	0.0106009
2736.49	0.0111837
2746.14	0.010984
2755.78	0.0112236
2765.42	0.0111704
2775.06	0.0111052
2784.71	0.0115134
2794.35	0.0117385
2803.99	0.0116586
2813.63	0.0120202
2823.28	0.0120347
2832.92	0.0124163
2842.56	0.0128045
2852.2	0.012449
2861.84	0.0123565
2871.49	0.0125814
2881.13	0.0131356
2890.77	0.0133691
2900.41	0.0135764
2910.06	0.0135926
2919.7	0.0132581
2929.34	0.0135825
2938.98	0.013681
2948.62	0.0133857
2958.27	0.0143507
2967.91	0.0139251
2977.55	0.0133235
2987.2	0.0129149
2996.84	0.0132083
3006.48	0.0135145
3016.12	0.0124653
3025.76	0.0138833
3035.41	0.0137762
3045.05	0.0136318
3054.69	0.0139975
3064.33	0.014825
3073.98	0.014228
3083.62	0.0145607
3093.26	0.0144821
3102.9	0.015049
3112.55	0.0151956
3122.19	0.0152702
3131.83	0.015761
3141.47	0.0158411
3151.11	0.0154182
3160.76	0.0158658
3170.4	0.0162319
3180.04	0.0166801
3189.68	0.0166253
3199.33	0.0163961
3208.97	0.017147
3218.61	0.0169081
3228.25	0.0172619
3237.9	0.0176063
3247.54	0.0176434
3257.18	0.0177964
3266.82	0.0170052
3276.47	0.017341
3286.11	0.0180446
3295.75	0.0175893
3305.39	0.0172652
3315.03	0.0181204
3324.68	0.0175534
3334.32	0.0175927
3343.96	0.0176899
3353.6	0.0178209
3363.25	0.017578
3372.89	0.0177527
3382.53	0.0175043
3392.17	0.0175616
3401.82	0.0175395
3411.46	0.0180398
3421.1	0.017126
3430.74	0.0170841
3440.39	0.017821
3450.03	0.0179646
3459.67	0.0178678
3469.31	0.0181581
3478.95	0.0177447
3488.6	0.017043
3498.24	0.0171509
3507.88	0.0166684
3517.52	0.0167209
3527.17	0.0167546
3536.81	0.0165721
3546.45	0.016773
3556.09	0.0174075
3565.74	0.0161153
3575.38	0.0159456
3585.02	0.0159148
3594.66	0.0159337
3604.3	0.0152386
3613.95	0.0158658
3623.59	0.015518
3633.23	0.0158758
3642.87	0.0151473
3652.52	0.0157995
3662.16	0.0151144
3671.8	0.0177251
3681.44	0.0173344
3691.09	0.0171717
3700.73	0.0151029
3710.37	0.0147224
3720.01	0.0129045
3729.66	0.0134203
3739.3	0.0136031
3748.94	0.0151353
3758.58	0.0133125
3768.22	0.0128993
3777.87	0.0126451
3787.51	0.0128038
3797.15	0.0128214
3806.79	0.0136208
3816.44	0.0143073
3826.08	0.0124696
3835.72	0.0136134
3845.36	0.0132364
3855.01	0.0142053
3864.65	0.0133822
3874.29	0.0130255
3883.93	0.0138773
3893.57	0.0131113
3903.22	0.0133713
3912.86	0.0132524
3922.5	0.0134338
3932.14	0.0123827
3941.79	0.0124734
3951.43	0.0125359
3961.07	0.0138259
3970.71	0.0136721
3980.36	0.0123873
3990	0.0133616
3999.64	0.0127304
