Measurement: Infrared, Infrared Data Processed
Mineral: Fluorapophyllite-(K)
Rruff sample: R040095
Ideal chemistry: KCa_4_Si_8_O_20_F8H_2_O
Locality: unknown
Source: University of Arizona Mineral Museum
Description: Colorless crystals
Measured chemistry: (K_0.90_Na_0.04_)Ca_3.96_Si_8.00_O_20_(F_0.82_(OH)_0.18_)Â·8H_2_O
x	intensity
399.193	0
408.835	0.0999819
418.477	0.103288
428.12	0.0773375
437.762	0.102107
447.404	0.122801
457.047	0.141838
466.689	0.179353
476.331	0.19008
485.974	0.164241
495.616	0.190707
505.258	0.169653
514.901	0.124968
524.543	0.126725
534.185	0.140557
543.828	0.119403
553.47	0.0813266
563.112	0.0531505
572.755	0.045746
582.397	0.054249
592.039	0.0774692
601.682	0.0802451
611.324	0.0561607
620.966	0.0451698
630.609	0.0409882
640.251	0.0324434
649.893	0.0291203
659.536	0.0278429
669.178	0.025589
678.82	0.024019
688.463	0.0240512
698.105	0.0261279
707.747	0.0287252
717.39	0.031849
727.032	0.0352746
736.674	0.0419332
746.317	0.0563633
755.959	0.0867132
765.601	0.10237
775.244	0.0796674
784.886	0.0785417
794.528	0.0705845
804.171	0.0538354
813.813	0.0424031
823.455	0.0365105
833.098	0.0353158
842.74	0.0353849
852.382	0.0369547
862.025	0.0393748
871.667	0.0424865
881.309	0.0449503
890.952	0.0494632
900.594	0.0551256
910.236	0.0629981
919.879	0.0743225
929.521	0.0910821
939.163	0.115345
948.806	0.149231
958.448	0.189661
968.09	0.241646
977.733	0.298879
987.375	0.350205
997.017	0.375972
1006.66	0.363129
1016.3	0.311635
1025.94	0.236314
1035.59	0.179299
1045.23	0.132702
1054.87	0.0918553
1064.51	0.0599638
1074.16	0.0496313
1083.8	0.0663246
1093.44	0.0964877
1103.08	0.0800308
1112.72	0.0772197
1122.37	0.0896966
1132.01	0.0639555
1141.65	0.0388134
1151.3	0.0264042
1160.94	0.0221519
1170.58	0.019231
1180.22	0.0171394
1189.86	0.0149128
1199.51	0.0130601
1209.15	0.0116985
1218.79	0.0105226
1228.43	0.00975671
1238.08	0.00907382
1247.72	0.008647
1257.36	0.00818781
1267	0.00812133
1276.64	0.00795462
1286.29	0.00771666
1295.93	0.00759374
1305.57	0.00755119
1315.21	0.00788466
1324.86	0.0079334
1334.5	0.00834375
1344.14	0.00853503
1353.78	0.00925388
1363.43	0.00953096
1373.07	0.00972731
1382.71	0.0104076
1392.35	0.0109277
1401.99	0.0117144
1411.64	0.0125292
1421.28	0.0129522
1430.92	0.0134518
1440.57	0.0143952
1450.21	0.0141001
1459.85	0.0154257
1469.49	0.0146871
1479.13	0.0138718
1488.78	0.0143425
1498.42	0.0147554
1508.06	0.015171
1517.7	0.0162374
1527.35	0.0166178
1536.99	0.0176361
1546.63	0.0185836
1556.27	0.0193023
1565.91	0.0195755
1575.56	0.0205881
1585.2	0.0210345
1594.84	0.0220027
1604.48	0.0222796
1614.13	0.0224944
1623.77	0.0233324
1633.41	0.0247689
1643.05	0.0268836
1652.7	0.0297713
1662.34	0.0352167
1671.98	0.0428946
1681.62	0.0460955
1691.27	0.0431759
1700.91	0.0280067
1710.55	0.0147214
1720.19	0.00989723
1729.84	0.00858112
1739.48	0.00784047
1749.12	0.00780794
1758.76	0.00754784
1768.4	0.00731179
1778.05	0.00767321
1787.69	0.00780658
1797.33	0.00766875
1806.97	0.00687855
1816.62	0.00657505
1826.26	0.00747606
1835.9	0.00684998
1845.54	0.00717425
1855.18	0.00674345
1864.83	0.00665424
1874.47	0.00663411
1884.11	0.00652599
1893.75	0.00700674
1903.4	0.00629024
1913.04	0.00578074
1922.68	0.00459575
1932.32	0.0039295
1941.97	0.00194045
1951.61	0.0032274
1961.25	-0.000640728
1970.89	-0.00227162
1980.54	-9.5843e-05
1990.18	0.00246784
1999.82	0.0010373
2009.46	-0.00176618
2019.11	-0.00172199
2028.75	-0.00240084
2038.39	0.00032861
2048.03	0.000380992
2057.67	0.004733
2067.32	0.00359933
2076.96	0.00549691
2086.6	0.00508206
2096.24	0.00621492
2105.89	0.00757576
2115.53	0.00928701
2125.17	0.00710049
2134.81	0.00642543
2144.45	0.00721129
2154.1	0.00634618
2163.74	0.00821719
2173.38	0.00780416
2183.02	0.00983777
2192.67	0.0102491
2202.31	0.00866418
2211.95	0.00906747
2221.59	0.0102777
2231.24	0.0100675
2240.88	0.00928152
2250.52	0.0122704
2260.16	0.0107713
2269.8	0.0118321
2279.45	0.0158709
2289.09	0.0147807
2298.73	0.0144361
2308.38	0.0139419
2318.02	0.0153349
2327.66	0.0141479
2337.3	0.0136507
2346.94	0.013431
2356.59	0.0127405
2366.23	0.0118948
2375.87	0.0120658
2385.51	0.0117857
2395.16	0.012033
2404.8	0.0110303
2414.44	0.0117208
2424.08	0.01179
2433.72	0.0118376
2443.37	0.0126715
2453.01	0.0142025
2462.65	0.0129817
2472.29	0.0129639
2481.94	0.0139716
2491.58	0.0140472
2501.22	0.0140015
2510.86	0.0133487
2520.51	0.0137471
2530.15	0.0135604
2539.79	0.0149535
2549.43	0.0142226
2559.07	0.0150831
2568.72	0.0148628
2578.36	0.0150615
2588	0.0162862
2597.64	0.0151096
2607.29	0.0161365
2616.93	0.0181236
2626.57	0.0178821
2636.21	0.018098
2645.86	0.0182643
2655.5	0.0185943
2665.14	0.0188434
2674.78	0.019892
2684.43	0.0206299
2694.07	0.0198928
2703.71	0.0208557
2713.35	0.0221861
2722.99	0.0220756
2732.64	0.0233201
2742.28	0.0233424
2751.92	0.0244992
2761.56	0.0259884
2771.21	0.0273174
2780.85	0.0275208
2790.49	0.0277373
2800.13	0.0291011
2809.78	0.0299717
2819.42	0.0315327
2829.06	0.0334017
2838.7	0.0345935
2848.34	0.0361129
2857.99	0.037243
2867.63	0.0384106
2877.27	0.039511
2886.91	0.0417597
2896.56	0.042419
2906.2	0.0450988
2915.84	0.0484976
2925.48	0.0474818
2935.13	0.0491404
2944.77	0.050938
2954.41	0.0510365
2964.05	0.0539493
2973.7	0.0569758
2983.34	0.0577142
2992.98	0.0591384
3002.62	0.0606743
3012.26	0.0625715
3021.91	0.0633596
3031.55	0.0644925
3041.19	0.0641256
3050.83	0.0620881
3060.48	0.0621858
3070.12	0.0610626
3079.76	0.0617938
3089.4	0.0600177
3099.05	0.0600514
3108.69	0.0587421
3118.33	0.0583269
3127.97	0.0561265
3137.61	0.0550148
3147.26	0.0544538
3156.9	0.0521015
3166.54	0.0513928
3176.18	0.0492081
3185.83	0.0485252
3195.47	0.047153
3205.11	0.0457047
3214.75	0.0451503
3224.4	0.0423122
3234.04	0.0397422
3243.68	0.0401229
3253.32	0.0352958
3262.97	0.0357155
3272.61	0.0345542
3282.25	0.0332489
3291.89	0.0307259
3301.53	0.0291557
3311.18	0.0288997
3320.82	0.0304501
3330.46	0.0293671
3340.1	0.0306013
3349.75	0.0289131
3359.39	0.0282596
3369.03	0.0275624
3378.67	0.0289245
3388.32	0.0272571
3397.96	0.0283328
3407.6	0.0279435
3417.24	0.026823
3426.89	0.0262475
3436.53	0.0272707
3446.17	0.0255568
3455.81	0.0250261
3465.45	0.026312
3475.1	0.0272321
3484.74	0.0287396
3494.38	0.0299634
3504.02	0.0298641
3513.67	0.033778
3523.31	0.0449586
3532.95	0.0627556
3542.59	0.0868172
3552.24	0.121713
3561.88	0.0806382
3571.52	0.0248412
3581.16	0.0149271
3590.8	0.00951597
3600.45	0.00947944
3610.09	0.0103437
3619.73	0.0119143
3629.37	0.00690151
3639.02	0.00993178
3648.66	0.00933619
3658.3	0.00740703
3667.94	0.00787245
3677.59	0.00598624
3687.23	0.00969838
3696.87	0.0100951
3706.51	0.00876713
3716.16	0.00625217
3725.8	0.00720122
3735.44	0.00617521
3745.08	0.00734546
3754.72	0.0114392
3764.37	0.00876409
3774.01	0.00731288
3783.65	0.00630114
3793.29	0.00898151
3802.94	0.00875417
3812.58	0.00590779
3822.22	0.00812179
3831.86	0.00501327
3841.51	0.00907729
3851.15	0.00800771
3860.79	0.0106036
3870.43	0.00926986
3880.07	0.00734042
3889.72	0.00508678
3899.36	0.0101223
3909	0.0106322
3918.64	0.0108228
3928.29	0.00895002
3937.93	0.00880735
3947.57	0.0090426
3957.21	0.00817196
3966.86	0.00830032
3976.5	0.0112729
3986.14	0.0106592
3995.78	0.00882795
