Measurement: Infrared, Infrared Data Processed
Mineral: Fluoro-edenite
Rruff sample: R070003
Ideal chemistry: NaCa_2_Mg_5_(Si_7_Al)O_22_F_2_
Locality: Cobden, Ontario, Canada
Source: Michael Scott
Description: Black to very dark green single crystal fragment
Measured chemistry: (Na_0.55_K_0.35_[box]_0.10_)_Σ=1_(Ca_1.65_Na_0.35_)_Σ=2_(Mg_2.42_Fe^2+^_1.81_Fe^3+^_0.52_Al_0.14_Ti_0.07_Mn_0.04_)_Σ=5_(Si_6.65_Al_1.35_)O_22_(F_1.03_(OH)_0.94_Cl_0.03_)_Σ=2_; (OH) estimated by difference
x	intensity
374.123	0.242168
383.765	0.242766
393.407	0.237442
403.05	0.236917
412.692	0.225252
422.334	0.237025
431.976	0.23528
441.619	0.234753
451.261	0.241987
460.904	0.229565
470.546	0.198414
480.188	0.169958
489.83	0.169968
499.473	0.17512
509.115	0.170186
518.758	0.153721
528.4	0.136932
538.042	0.113712
547.684	0.0882934
557.327	0.0651621
566.969	0.0484084
576.611	0.0376361
586.254	0.0357877
595.896	0.0425628
605.538	0.0535013
615.181	0.0588496
624.823	0.060106
634.466	0.0635405
644.108	0.067156
653.75	0.0723146
663.393	0.0748485
673.035	0.0721711
682.677	0.0692362
692.319	0.065445
701.962	0.0621959
711.604	0.0603939
721.246	0.0662151
730.889	0.0740544
740.531	0.0743695
750.173	0.0749879
759.816	0.0774178
769.458	0.0839142
779.101	0.0906587
788.743	0.0922177
798.385	0.0907137
808.028	0.0925766
817.67	0.105282
827.312	0.128095
836.955	0.157774
846.597	0.19093
856.239	0.215728
865.881	0.232572
875.524	0.246387
885.166	0.263382
894.808	0.283547
904.451	0.305573
914.093	0.316604
923.736	0.317679
933.378	0.319345
943.02	0.313091
952.663	0.29746
962.305	0.280387
971.947	0.260869
981.59	0.236569
991.232	0.205858
1000.87	0.174925
1010.52	0.151366
1020.16	0.139764
1029.8	0.136542
1039.44	0.135927
1049.09	0.132972
1058.73	0.121404
1068.37	0.104072
1078.01	0.0873065
1087.65	0.0735507
1097.3	0.063394
1106.94	0.0544675
1116.58	0.0423685
1126.22	0.0276389
1135.87	0.014906
1145.51	0.00788975
1155.15	0.00573086
1164.79	0.0044627
1174.44	0.00336821
1184.08	0.00291755
1193.72	0.00250812
1203.36	0.00224976
1213.01	0.00188389
1222.65	0.00179835
1232.29	0.00185074
1241.93	0.00173665
1251.58	0.00167576
1261.22	0.00187948
1270.86	0.00182107
1280.5	0.00174699
1290.14	0.00192522
1299.79	0.00200552
1309.43	0.00226794
1319.07	0.00219241
1328.71	0.00243058
1338.36	0.0023288
1348	0.00275169
1357.64	0.00286726
1367.28	0.00312565
1376.92	0.0032414
1386.57	0.00303245
1396.21	0.00345343
1405.85	0.00403708
1415.49	0.00442219
1425.14	0.00453549
1434.78	0.00452777
1444.42	0.0049475
1454.06	0.00476624
1463.71	0.00467572
1473.35	0.00368837
1482.99	0.00446391
1492.63	0.00457331
1502.28	0.00452281
1511.92	0.00463135
1521.56	0.00378203
1531.2	0.00521631
1540.85	0.00421014
1550.49	0.00660787
1560.13	0.00524952
1569.77	0.00681161
1579.41	0.00745522
1589.06	0.00766156
1598.7	0.00788759
1608.34	0.00772706
1617.98	0.00697444
1627.63	0.00748341
1637.27	0.00705431
1646.91	0.00678706
1656.55	0.00725624
1666.19	0.00727496
1675.84	0.00628787
1685.48	0.0051679
1695.12	0.00511553
1704.77	0.0057501
1714.41	0.00557092
1724.05	0.0061504
1733.69	0.00461074
1743.33	0.00538552
1752.98	0.00495145
1762.62	0.00486206
1772.26	0.00433066
1781.9	0.00517789
1791.55	0.00463592
1801.19	0.00496515
1810.83	0.00507383
1820.47	0.00514101
1830.12	0.00440144
1839.76	0.00511689
1849.4	0.00504545
1859.04	0.00520775
1868.68	0.00483048
1878.33	0.00474285
1887.97	0.00511223
1897.61	0.00514245
1907.25	0.00450891
1916.9	0.00476879
1926.54	0.00434467
1936.18	0.00413452
1945.82	0.0042207
1955.46	0.00317306
1965.11	0.00481147
1974.75	0.0035831
1984.39	0.00630412
1994.04	0.00604653
2003.68	0.00468935
2013.32	0.00607775
2022.96	0.00486683
2032.6	0.00638048
2042.25	0.00567174
2051.89	0.00673886
2061.53	0.00561755
2071.17	0.0068179
2080.82	0.00594961
2090.46	0.00550628
2100.1	0.00668457
2109.74	0.00653389
2119.39	0.00598032
2129.03	0.00478526
2138.67	0.00548626
2148.31	0.00631513
2157.95	0.00625049
2167.6	0.0101007
2177.24	0.00935576
2186.88	0.00901922
2196.52	0.00922446
2206.17	0.00857023
2215.81	0.00892922
2225.45	0.00892705
2235.09	0.00845703
2244.74	0.00963104
2254.38	0.00940669
2264.02	0.00977959
2273.66	0.0105218
2283.3	0.0104246
2292.95	0.0104189
2302.59	0.0104165
2312.23	0.00983276
2321.87	0.0107685
2331.52	0.00909334
2341.16	0.00893334
2350.8	0.00985786
2360.44	0.00876469
2370.09	0.00908665
2379.73	0.00931871
2389.37	0.0098135
2399.01	0.0100012
2408.66	0.00995338
2418.3	0.0105914
2427.94	0.0100153
2437.58	0.0100613
2447.22	0.0101891
2456.87	0.0106471
2466.51	0.010529
2476.15	0.0101844
2485.79	0.0103384
2495.44	0.0103607
2505.08	0.010969
2514.72	0.0107485
2524.36	0.0110803
2534.01	0.0110466
2543.65	0.0112525
2553.29	0.0112481
2562.93	0.0113594
2572.57	0.011384
2582.22	0.0113818
2591.86	0.0112384
2601.5	0.0117333
2611.14	0.011756
2620.79	0.0119636
2630.43	0.0121553
2640.07	0.0125916
2649.71	0.0125336
2659.36	0.0127312
2669	0.0123211
2678.64	0.0122709
2688.28	0.0124627
2697.93	0.0124675
2707.57	0.012652
2717.21	0.0125527
2726.85	0.0131932
2736.49	0.0129333
2746.14	0.0132744
2755.78	0.01317
2765.42	0.0131191
2775.06	0.0134763
2784.71	0.0136453
2794.35	0.0138128
2803.99	0.0136896
2813.63	0.014097
2823.28	0.0143286
2832.92	0.0144068
2842.56	0.0158539
2852.2	0.0171238
2861.84	0.0158555
2871.49	0.0157037
2881.13	0.0158596
2890.77	0.0167928
2900.41	0.0167273
2910.06	0.0176304
2919.7	0.0199898
2929.34	0.0190073
2938.98	0.0173459
2948.62	0.0166659
2958.27	0.0176714
2967.91	0.0163124
2977.55	0.015158
2987.2	0.0156341
2996.84	0.0155395
3006.48	0.0148567
3016.12	0.0159067
3025.76	0.0157679
3035.41	0.0155764
3045.05	0.0161178
3054.69	0.0155083
3064.33	0.0156907
3073.98	0.0162561
3083.62	0.0162989
3093.26	0.0163865
3102.9	0.0165178
3112.55	0.0166875
3122.19	0.0168296
3131.83	0.0165623
3141.47	0.0172718
3151.11	0.0172528
3160.76	0.0180369
3170.4	0.0175308
3180.04	0.0172938
3189.68	0.017628
3199.33	0.018255
3208.97	0.0173677
3218.61	0.0178779
3228.25	0.0181813
3237.9	0.0183477
3247.54	0.0184132
3257.18	0.0194263
3266.82	0.0180208
3276.47	0.0187789
3286.11	0.0184088
3295.75	0.0195329
3305.39	0.0189706
3315.03	0.0190022
3324.68	0.019145
3334.32	0.0196769
3343.96	0.0191361
3353.6	0.0193553
3363.25	0.0189905
3372.89	0.0184874
3382.53	0.0190259
3392.17	0.0196888
3401.82	0.0197441
3411.46	0.0192319
3421.1	0.0194055
3430.74	0.0187056
3440.39	0.0184097
3450.03	0.0195131
3459.67	0.0188268
3469.31	0.018877
3478.95	0.0190153
3488.6	0.0184398
3498.24	0.0189204
3507.88	0.0187154
3517.52	0.0190729
3527.17	0.0188181
3536.81	0.0187684
3546.45	0.018329
3556.09	0.0183548
3565.74	0.017357
3575.38	0.0172904
3585.02	0.0170369
3594.66	0.0169584
3604.3	0.0177825
3613.95	0.01616
3623.59	0.0178665
3633.23	0.0179961
3642.87	0.0179759
3652.52	0.0173939
3662.16	0.0181061
3671.8	0.0150619
3681.44	0.0164405
3691.09	0.0141747
3700.73	0.0146912
3710.37	0.0134329
3720.01	0.0147783
3729.66	0.0146602
3739.3	0.0145296
3748.94	0.0128879
3758.58	0.0146384
3768.22	0.015277
3777.87	0.0152474
3787.51	0.0153179
3797.15	0.0148004
3806.79	0.0144159
3816.44	0.0138539
3826.08	0.0151486
3835.72	0.0130308
3845.36	0.0162594
3855.01	0.0130942
3864.65	0.0144825
3874.29	0.015883
3883.93	0.0157296
3893.57	0.0154802
3903.22	0.0145456
3912.86	0.016526
3922.5	0.0169444
3932.14	0.0164165
3941.79	0.0161799
3951.43	0.0159001
3961.07	0.0161147
3970.71	0.0165317
3980.36	0.0167096
3990	0.0162085
3999.64	0.018348
