Measurement: Infrared, Infrared Data Processed
Mineral: Foitite
Rruff sample: R050356
Ideal chemistry: [box](Fe^2+^_2_Al)Al_6_(Si_6_O_18_)(BO_3_)_3_(OH)_3_OH
Locality: Fano mine, Cahuilla Mountain, Riverside County, California, USA
Source: George Rossman
Description: Black prismatic, elongated and striated fragment
Measured chemistry: (Na_0.50_[box]_0.50_)_Σ=1_(Fe^2+^_1.94_Al_0.77_Li_0.15_Mn_0.10_Mg_0.04_)_Σ=3.00_Al_6.00_(BO_3_)_3_(Si_5.88_Al_0.12_)_Σ=6_O_18_(OH)_4_ ; B and Li not measured but estimated by charge balance
x	intensity
399.193	0.345218
408.835	0.358227
418.477	0.359407
428.12	0.327888
437.762	0.325882
447.404	0.318873
457.047	0.311961
466.689	0.333476
476.331	0.348812
485.974	0.348793
495.616	0.334142
505.258	0.309887
514.901	0.276631
524.543	0.235957
534.185	0.208065
543.828	0.197548
553.47	0.195845
563.112	0.181293
572.755	0.174168
582.397	0.179753
592.039	0.168427
601.682	0.158373
611.324	0.160312
620.966	0.141641
630.609	0.130245
640.251	0.12866
649.893	0.128867
659.536	0.122557
669.178	0.117613
678.82	0.106365
688.463	0.111808
698.105	0.137787
707.747	0.131737
717.39	0.106654
727.032	0.094067
736.674	0.0894232
746.317	0.105283
755.959	0.0953616
765.601	0.0841631
775.244	0.106614
784.886	0.101511
794.528	0.0645154
804.171	0.0506197
813.813	0.0523457
823.455	0.0527167
833.098	0.0537323
842.74	0.0586727
852.382	0.0655434
862.025	0.0611099
871.667	0.0578563
881.309	0.0661643
890.952	0.0822454
900.594	0.100488
910.236	0.126866
919.879	0.167746
929.521	0.216816
939.163	0.270972
948.806	0.328403
958.448	0.369761
968.09	0.38207
977.733	0.376797
987.375	0.349172
997.017	0.318124
1006.66	0.297433
1016.3	0.285062
1025.94	0.264781
1035.59	0.23327
1045.23	0.204142
1054.87	0.182041
1064.51	0.161214
1074.16	0.129962
1083.8	0.102764
1093.44	0.10133
1103.08	0.110092
1112.72	0.104715
1122.37	0.0795557
1132.01	0.0488014
1141.65	0.0301294
1151.3	0.0233275
1160.94	0.0211707
1170.58	0.0195617
1180.22	0.01955
1189.86	0.0202268
1199.51	0.0221077
1209.15	0.0259754
1218.79	0.0343022
1228.43	0.0520552
1238.08	0.0805286
1247.72	0.115816
1257.36	0.158199
1267	0.18772
1276.64	0.183956
1286.29	0.162063
1295.93	0.147676
1305.57	0.144201
1315.21	0.14912
1324.86	0.153174
1334.5	0.14227
1344.14	0.122434
1353.78	0.101337
1363.43	0.0803739
1373.07	0.0630103
1382.71	0.0500462
1392.35	0.0384961
1401.99	0.0316575
1411.64	0.0261781
1421.28	0.020607
1430.92	0.0152634
1440.57	0.0107795
1450.21	0.0083443
1459.85	0.0072858
1469.49	0.00653672
1479.13	0.00648698
1488.78	0.00583949
1498.42	0.0051169
1508.06	0.00549475
1517.7	0.00490415
1527.35	0.00517049
1536.99	0.00492793
1546.63	0.00502028
1556.27	0.00613686
1565.91	0.00657203
1575.56	0.00705716
1585.2	0.00678954
1594.84	0.00762353
1604.48	0.00777283
1614.13	0.00832551
1623.77	0.007902
1633.41	0.00832525
1643.05	0.00844678
1652.7	0.00834054
1662.34	0.00758339
1671.98	0.00699156
1681.62	0.00710176
1691.27	0.00607915
1700.91	0.00578321
1710.55	0.00454324
1720.19	0.00491662
1729.84	0.00374048
1739.48	0.00289627
1749.12	0.00283955
1758.76	0.00370787
1768.4	0.00400368
1778.05	0.00422547
1787.69	0.00438604
1797.33	0.00474737
1806.97	0.00444299
1816.62	0.00390049
1826.26	0.00482798
1835.9	0.00384647
1845.54	0.00288966
1855.18	0.0032276
1864.83	0.00243116
1874.47	0.00222616
1884.11	0.00218691
1893.75	0.00128878
1903.4	0.000341012
1913.04	0.00236331
1922.68	-0.000423666
1932.32	-0.000285378
1941.97	-0.00134156
1951.61	-0.00119623
1961.25	-0.00622342
1970.89	-0.00579725
1980.54	-0.0024372
1990.18	-0.00343773
1999.82	-0.00342746
2009.46	-0.00308784
2019.11	-0.00482619
2028.75	-0.00385753
2038.39	-0.00531891
2048.03	-4.5804e-05
2057.67	0.000445729
2067.32	0.00138419
2076.96	0.000628252
2086.6	0.000177148
2096.24	0.00100629
2105.89	0.00237779
2115.53	0.0025348
2125.17	-0.000596226
2134.81	-0.00402653
2144.45	-0.00492383
2154.1	-0.0054167
2163.74	-0.000508742
2173.38	0.00289959
2183.02	0.000245166
2192.67	0.00273294
2202.31	0.00374917
2211.95	0.00183681
2221.59	0.00350772
2231.24	0.00308341
2240.88	0.0057006
2250.52	0.00549683
2260.16	0.00699027
2269.8	0.00930851
2279.45	0.00909808
2289.09	0.0104051
2298.73	0.00904984
2308.38	0.0103241
2318.02	0.0108961
2327.66	0.00968227
2337.3	0.00829642
2346.94	0.0095006
2356.59	0.00816186
2366.23	0.00775989
2375.87	0.00913843
2385.51	0.0073766
2395.16	0.00821089
2404.8	0.0103273
2414.44	0.00816436
2424.08	0.00827111
2433.72	0.00837741
2443.37	0.00963943
2453.01	0.0097636
2462.65	0.00811244
2472.29	0.00694646
2481.94	0.00631309
2491.58	0.00734271
2501.22	0.00656856
2510.86	0.00644893
2520.51	0.00527947
2530.15	0.00443041
2539.79	0.00634284
2549.43	0.00359712
2559.07	0.00630035
2568.72	0.00620179
2578.36	0.007549
2588	0.00770276
2597.64	0.00740063
2607.29	0.00916643
2616.93	0.00941609
2626.57	0.00946702
2636.21	0.00875689
2645.86	0.00880261
2655.5	0.00974057
2665.14	0.00971432
2674.78	0.00979245
2684.43	0.00948695
2694.07	0.00910442
2703.71	0.00940663
2713.35	0.0101255
2722.99	0.00973869
2732.64	0.0112519
2742.28	0.0119217
2751.92	0.0117617
2761.56	0.0109858
2771.21	0.011674
2780.85	0.0132557
2790.49	0.0123292
2800.13	0.0139059
2809.78	0.0120308
2819.42	0.0122837
2829.06	0.0131355
2838.7	0.011465
2848.34	0.00819382
2857.99	0.00879918
2867.63	0.0112564
2877.27	0.0121062
2886.91	0.0136206
2896.56	0.0117523
2906.2	0.0123254
2915.84	0.00854282
2925.48	0.00558553
2935.13	0.00884276
2944.77	0.0129508
2954.41	0.0114842
2964.05	0.015406
2973.7	0.0177683
2983.34	0.0171873
2992.98	0.0162416
3002.62	0.0172448
3012.26	0.0176628
3021.91	0.0159354
3031.55	0.0165601
3041.19	0.0172051
3050.83	0.0177519
3060.48	0.0186306
3070.12	0.0189078
3079.76	0.0189801
3089.4	0.018489
3099.05	0.0179979
3108.69	0.0200078
3118.33	0.0201777
3127.97	0.0197203
3137.61	0.0202124
3147.26	0.0194301
3156.9	0.0221412
3166.54	0.0195945
3176.18	0.0213322
3185.83	0.0214719
3195.47	0.0218076
3205.11	0.0233795
3214.75	0.0225161
3224.4	0.023441
3234.04	0.0215103
3243.68	0.0252243
3253.32	0.0257629
3262.97	0.0221111
3272.61	0.0245774
3282.25	0.0241271
3291.89	0.0240869
3301.53	0.024563
3311.18	0.0245395
3320.82	0.0250967
3330.46	0.0259859
3340.1	0.0273826
3349.75	0.0273402
3359.39	0.0268414
3369.03	0.0256597
3378.67	0.0273024
3388.32	0.0265751
3397.96	0.0288585
3407.6	0.0273241
3417.24	0.0291591
3426.89	0.0303902
3436.53	0.0286113
3446.17	0.0345463
3455.81	0.0354587
3465.45	0.0405196
3475.1	0.0427645
3484.74	0.0416144
3494.38	0.0409008
3504.02	0.0396776
3513.67	0.0357716
3523.31	0.0373018
3532.95	0.0391103
3542.59	0.0473743
3552.24	0.0455645
3561.88	0.0397311
3571.52	0.0265253
3581.16	0.021382
3590.8	0.0215736
3600.45	0.0173654
3610.09	0.0154807
3619.73	0.0149406
3629.37	0.0220996
3639.02	0.0144624
3648.66	0.0118875
3658.3	0.0118413
3667.94	0.0123635
3677.59	0.0108513
3687.23	0.0158897
3696.87	0.0150441
3706.51	0.0137217
3716.16	0.00756751
3725.8	0.0148689
3735.44	0.0112985
3745.08	0.0167661
3754.72	0.0167838
3764.37	0.00972314
3774.01	0.00852466
3783.65	0.0115499
3793.29	0.010312
3802.94	0.0172459
3812.58	0.0142247
3822.22	0.0129614
3831.86	0.0153146
3841.51	0.0108617
3851.15	0.0126998
3860.79	0.0166848
3870.43	0.0143829
3880.07	0.0139744
3889.72	0.009556
3899.36	0.0147484
3909	0.0103774
3918.64	0.0146499
3928.29	0.0111186
3937.93	0.0143183
3947.57	0.013265
3957.21	0.0106076
3966.86	0.0139489
3976.5	0.011976
3986.14	0.0110196
3995.78	0.0109374
