Measurement: Infrared, Infrared Data Processed
Mineral: Frondelite
Rruff sample: R050622
Ideal chemistry: (Mn^2+^_0.5_Fe^3+^_0.5_)_2_Fe^3+^_3_(PO_4_)_3_(OH)_5_
Locality: Hagendorf, Bavaria, Germany
Source: University of Arizona Mineral Museum
Description: Black bladed crystals in divergent radial aggregates
Measured chemistry: (Mn^2+^_0.63_Fe^2+^_0.37_)_Î£=1_Fe^3+^_4.00_(P_1.00_O_4_)_3_(OH)_5_
x	intensity
399.193	0.239013
408.835	0.239038
418.477	0.239876
428.12	0.226342
437.762	0.199279
447.404	0.175982
457.047	0.164472
466.689	0.15513
476.331	0.143223
485.974	0.136029
495.616	0.129459
505.258	0.119732
514.901	0.112133
524.543	0.11209
534.185	0.123215
543.828	0.155409
553.47	0.167763
563.112	0.180076
572.755	0.180966
582.397	0.175201
592.039	0.20624
601.682	0.196975
611.324	0.155041
620.966	0.104948
630.609	0.0788302
640.251	0.073859
649.893	0.0583754
659.536	0.0549731
669.178	0.058485
678.82	0.0664349
688.463	0.076923
698.105	0.086111
707.747	0.0916046
717.39	0.0948056
727.032	0.0962084
736.674	0.0981407
746.317	0.0997019
755.959	0.100591
765.601	0.102491
775.244	0.107054
784.886	0.117604
794.528	0.132858
804.171	0.136878
813.813	0.144493
823.455	0.158015
833.098	0.172712
842.74	0.191254
852.382	0.216556
862.025	0.246027
871.667	0.272021
881.309	0.291726
890.952	0.306988
900.594	0.329748
910.236	0.366281
919.879	0.408319
929.521	0.445417
939.163	0.472455
948.806	0.492163
958.448	0.499668
968.09	0.488681
977.733	0.471159
987.375	0.454711
997.017	0.454876
1006.66	0.458267
1016.3	0.4401
1025.94	0.418413
1035.59	0.383213
1045.23	0.343979
1054.87	0.3071
1064.51	0.272024
1074.16	0.23009
1083.8	0.184667
1093.44	0.150311
1103.08	0.124146
1112.72	0.106403
1122.37	0.100823
1132.01	0.103899
1141.65	0.105882
1151.3	0.105359
1160.94	0.0933427
1170.58	0.0674019
1180.22	0.0480551
1189.86	0.0355025
1199.51	0.0224965
1209.15	0.0187704
1218.79	0.017614
1228.43	0.0176057
1238.08	0.0171676
1247.72	0.0173899
1257.36	0.0179656
1267	0.0187604
1276.64	0.0195636
1286.29	0.0199654
1295.93	0.0207391
1305.57	0.0209388
1315.21	0.0215363
1324.86	0.0216218
1334.5	0.0221376
1344.14	0.02248
1353.78	0.0225434
1363.43	0.0229034
1373.07	0.0231488
1382.71	0.0237095
1392.35	0.0238093
1401.99	0.0249516
1411.64	0.0253797
1421.28	0.02542
1430.92	0.0258706
1440.57	0.0259195
1450.21	0.0257286
1459.85	0.0257971
1469.49	0.0265005
1479.13	0.0273314
1488.78	0.0278965
1498.42	0.0285455
1508.06	0.0296757
1517.7	0.0301635
1527.35	0.0316022
1536.99	0.0334603
1546.63	0.0358904
1556.27	0.0371673
1565.91	0.0361762
1575.56	0.0356471
1585.2	0.0354689
1594.84	0.0349893
1604.48	0.0343074
1614.13	0.034302
1623.77	0.0341977
1633.41	0.034159
1643.05	0.0336838
1652.7	0.0331761
1662.34	0.0318234
1671.98	0.03072
1681.62	0.0306144
1691.27	0.0301517
1700.91	0.0296656
1710.55	0.0283788
1720.19	0.0289973
1729.84	0.0288743
1739.48	0.0265467
1749.12	0.0263447
1758.76	0.0287516
1768.4	0.029814
1778.05	0.0299663
1787.69	0.030384
1797.33	0.0305752
1806.97	0.0311629
1816.62	0.0306831
1826.26	0.0311934
1835.9	0.0323781
1845.54	0.0317024
1855.18	0.0319277
1864.83	0.0324179
1874.47	0.0324098
1884.11	0.0323806
1893.75	0.0340975
1903.4	0.0326743
1913.04	0.0321528
1922.68	0.0323198
1932.32	0.0317355
1941.97	0.0316848
1951.61	0.0289108
1961.25	0.0275118
1970.89	0.0270754
1980.54	0.0327558
1990.18	0.029054
1999.82	0.0288553
2009.46	0.0265785
2019.11	0.0210134
2028.75	0.0262079
2038.39	0.0275629
2048.03	0.0312981
2057.67	0.0310389
2067.32	0.0335545
2076.96	0.0338672
2086.6	0.0352912
2096.24	0.0335696
2105.89	0.0328543
2115.53	0.0362927
2125.17	0.0319583
2134.81	0.0293787
2144.45	0.0246304
2154.1	0.0241287
2163.74	0.0298557
2173.38	0.0316319
2183.02	0.0275273
2192.67	0.0311004
2202.31	0.0323332
2211.95	0.0356686
2221.59	0.0372073
2231.24	0.0386308
2240.88	0.0372883
2250.52	0.0383381
2260.16	0.0402692
2269.8	0.0378042
2279.45	0.0406169
2289.09	0.0418359
2298.73	0.0409418
2308.38	0.041143
2318.02	0.0426092
2327.66	0.0419864
2337.3	0.0425126
2346.94	0.0435104
2356.59	0.0450631
2366.23	0.0438467
2375.87	0.0447536
2385.51	0.0444728
2395.16	0.0454627
2404.8	0.0452131
2414.44	0.0463485
2424.08	0.0485802
2433.72	0.0464564
2443.37	0.0480982
2453.01	0.0475252
2462.65	0.0488999
2472.29	0.0486539
2481.94	0.0499556
2491.58	0.0508778
2501.22	0.0496525
2510.86	0.0502805
2520.51	0.0505244
2530.15	0.0513043
2539.79	0.0527376
2549.43	0.0539185
2559.07	0.0547155
2568.72	0.0549809
2578.36	0.0552686
2588	0.0556732
2597.64	0.0570859
2607.29	0.0562343
2616.93	0.0577721
2626.57	0.0599017
2636.21	0.0598735
2645.86	0.0603685
2655.5	0.0611236
2665.14	0.0614211
2674.78	0.0622993
2684.43	0.0623526
2694.07	0.0633828
2703.71	0.064494
2713.35	0.0643725
2722.99	0.06658
2732.64	0.066098
2742.28	0.0678037
2751.92	0.0694772
2761.56	0.0697835
2771.21	0.0711671
2780.85	0.071661
2790.49	0.0725795
2800.13	0.0731758
2809.78	0.0749068
2819.42	0.0754574
2829.06	0.0757439
2838.7	0.0784494
2848.34	0.07781
2857.99	0.0784907
2867.63	0.0793538
2877.27	0.0820745
2886.91	0.082694
2896.56	0.0827371
2906.2	0.0831523
2915.84	0.0856436
2925.48	0.0851178
2935.13	0.0865885
2944.77	0.0881807
2954.41	0.090294
2964.05	0.091951
2973.7	0.0937451
2983.34	0.0942751
2992.98	0.0956836
3002.62	0.0973926
3012.26	0.0977155
3021.91	0.0996661
3031.55	0.10082
3041.19	0.103024
3050.83	0.104016
3060.48	0.105955
3070.12	0.105841
3079.76	0.110947
3089.4	0.110259
3099.05	0.11191
3108.69	0.113022
3118.33	0.115089
3127.97	0.117324
3137.61	0.116215
3147.26	0.118986
3156.9	0.121887
3166.54	0.124208
3176.18	0.125055
3185.83	0.127444
3195.47	0.127199
3205.11	0.12705
3214.75	0.132288
3224.4	0.130916
3234.04	0.132464
3243.68	0.131907
3253.32	0.134251
3262.97	0.136002
3272.61	0.134689
3282.25	0.13067
3291.89	0.125865
3301.53	0.122166
3311.18	0.117543
3320.82	0.115912
3330.46	0.10948
3340.1	0.10591
3349.75	0.103597
3359.39	0.0989877
3369.03	0.100179
3378.67	0.0964851
3388.32	0.092953
3397.96	0.0870481
3407.6	0.0834777
3417.24	0.0828594
3426.89	0.0807967
3436.53	0.0796461
3446.17	0.0716654
3455.81	0.0710463
3465.45	0.0681148
3475.1	0.063102
3484.74	0.0650494
3494.38	0.0606558
3504.02	0.0615796
3513.67	0.0585153
3523.31	0.0606998
3532.95	0.0608645
3542.59	0.057759
3552.24	0.0606157
3561.88	0.0589167
3571.52	0.0654417
3581.16	0.0804724
3590.8	0.0728583
3600.45	0.0525611
3610.09	0.0492646
3619.73	0.0512177
3629.37	0.0474952
3639.02	0.0493509
3648.66	0.0517886
3658.3	0.0558757
3667.94	0.0493197
3677.59	0.0530132
3687.23	0.05222
3696.87	0.0527098
3706.51	0.0528496
3716.16	0.0509636
3725.8	0.0498715
3735.44	0.0541156
3745.08	0.0552152
3754.72	0.0564799
3764.37	0.0567502
3774.01	0.056417
3783.65	0.0544328
3793.29	0.0573668
3802.94	0.0568922
3812.58	0.0598419
3822.22	0.0580003
3831.86	0.0588012
3841.51	0.0599286
3851.15	0.0591107
3860.79	0.0628217
3870.43	0.0593938
3880.07	0.0651382
3889.72	0.0606797
3899.36	0.0655297
3909	0.0594299
3918.64	0.0607325
3928.29	0.0601835
3937.93	0.0563119
3947.57	0.0633561
3957.21	0.0593168
3966.86	0.061614
3976.5	0.066358
3986.14	0.0648168
3995.78	0.0642262
