Measurement: Infrared, Infrared Data Processed
Mineral: Ganomalite
Rruff sample: R050387
Ideal chemistry: Pb^2+^_3_Ca_2_(SiO_4_)(Si_2_O_7_)
Locality: Sells, Pima County, Arizona, USA
Source: University of Arizona Mineral Museum
Description: Yellowish-red massive
x	intensity
399.193	0.259496
408.835	0.270135
418.477	0.279747
428.12	0.289662
437.762	0.260573
447.404	0.246949
457.047	0.249375
466.689	0.23819
476.331	0.212445
485.974	0.187423
495.616	0.174443
505.258	0.168029
514.901	0.1529
524.543	0.136885
534.185	0.0983612
543.828	0.0801246
553.47	0.0720864
563.112	0.0651373
572.755	0.0614176
582.397	0.0558373
592.039	0.0536261
601.682	0.0614463
611.324	0.061743
620.966	0.0583686
630.609	0.0615663
640.251	0.0689374
649.893	0.0774225
659.536	0.0867059
669.178	0.102709
678.82	0.121256
688.463	0.11945
698.105	0.122024
707.747	0.133908
717.39	0.120226
727.032	0.114742
736.674	0.12621
746.317	0.145463
755.959	0.169954
765.601	0.199342
775.244	0.226328
784.886	0.260636
794.528	0.296909
804.171	0.305678
813.813	0.293735
823.455	0.31029
833.098	0.320336
842.74	0.31382
852.382	0.313241
862.025	0.325877
871.667	0.329169
881.309	0.323896
890.952	0.310704
900.594	0.288341
910.236	0.253621
919.879	0.217589
929.521	0.205481
939.163	0.196924
948.806	0.178143
958.448	0.161539
968.09	0.151249
977.733	0.136599
987.375	0.118061
997.017	0.104756
1006.66	0.0997169
1016.3	0.100321
1025.94	0.102383
1035.59	0.0969333
1045.23	0.0820181
1054.87	0.0704744
1064.51	0.0666905
1074.16	0.0659086
1083.8	0.0632562
1093.44	0.0594136
1103.08	0.0552782
1112.72	0.0506183
1122.37	0.0460972
1132.01	0.0438181
1141.65	0.0423726
1151.3	0.042062
1160.94	0.0423403
1170.58	0.043252
1180.22	0.0441217
1189.86	0.0454593
1199.51	0.0468805
1209.15	0.0483197
1218.79	0.0494729
1228.43	0.0503855
1238.08	0.0523084
1247.72	0.0540537
1257.36	0.0562186
1267	0.0588462
1276.64	0.0614483
1286.29	0.0637488
1295.93	0.0668149
1305.57	0.0708235
1315.21	0.0754284
1324.86	0.0795066
1334.5	0.0845504
1344.14	0.089583
1353.78	0.0955999
1363.43	0.100791
1373.07	0.10624
1382.71	0.114064
1392.35	0.126217
1401.99	0.132831
1411.64	0.131895
1421.28	0.128832
1430.92	0.124914
1440.57	0.119581
1450.21	0.112255
1459.85	0.10494
1469.49	0.0989224
1479.13	0.0940058
1488.78	0.0911159
1498.42	0.0900008
1508.06	0.0894981
1517.7	0.0897292
1527.35	0.0908132
1536.99	0.0915251
1546.63	0.0925741
1556.27	0.0934662
1565.91	0.0941758
1575.56	0.0951337
1585.2	0.0960999
1594.84	0.0971915
1604.48	0.0989051
1614.13	0.0999611
1623.77	0.100888
1633.41	0.101872
1643.05	0.103397
1652.7	0.103765
1662.34	0.105338
1671.98	0.105979
1681.62	0.107105
1691.27	0.107269
1700.91	0.108735
1710.55	0.108416
1720.19	0.110633
1729.84	0.111464
1739.48	0.111496
1749.12	0.111507
1758.76	0.113089
1768.4	0.114585
1778.05	0.114545
1787.69	0.116151
1797.33	0.116683
1806.97	0.118285
1816.62	0.118157
1826.26	0.119582
1835.9	0.120939
1845.54	0.122812
1855.18	0.123944
1864.83	0.123546
1874.47	0.12475
1884.11	0.125293
1893.75	0.127086
1903.4	0.12802
1913.04	0.127228
1922.68	0.129152
1932.32	0.129311
1941.97	0.129138
1951.61	0.130362
1961.25	0.131802
1970.89	0.134084
1980.54	0.138428
1990.18	0.135983
1999.82	0.136723
2009.46	0.13371
2019.11	0.136161
2028.75	0.138995
2038.39	0.137359
2048.03	0.14244
2057.67	0.141693
2067.32	0.144783
2076.96	0.147397
2086.6	0.145493
2096.24	0.148387
2105.89	0.150184
2115.53	0.152063
2125.17	0.149678
2134.81	0.147196
2144.45	0.148422
2154.1	0.144558
2163.74	0.152055
2173.38	0.154998
2183.02	0.154689
2192.67	0.155327
2202.31	0.157999
2211.95	0.160515
2221.59	0.16069
2231.24	0.160199
2240.88	0.164158
2250.52	0.163038
2260.16	0.164581
2269.8	0.167181
2279.45	0.169364
2289.09	0.169858
2298.73	0.169666
2308.38	0.170592
2318.02	0.171781
2327.66	0.171918
2337.3	0.172494
2346.94	0.171766
2356.59	0.174059
2366.23	0.175271
2375.87	0.175291
2385.51	0.176678
2395.16	0.176274
2404.8	0.177459
2414.44	0.179564
2424.08	0.180612
2433.72	0.179816
2443.37	0.182766
2453.01	0.182525
2462.65	0.184139
2472.29	0.183884
2481.94	0.186731
2491.58	0.186102
2501.22	0.186559
2510.86	0.18705
2520.51	0.189161
2530.15	0.188326
2539.79	0.19012
2549.43	0.189389
2559.07	0.191206
2568.72	0.191619
2578.36	0.193609
2588	0.195745
2597.64	0.194393
2607.29	0.196622
2616.93	0.198115
2626.57	0.199193
2636.21	0.198177
2645.86	0.200362
2655.5	0.199318
2665.14	0.201317
2674.78	0.200802
2684.43	0.201613
2694.07	0.202633
2703.71	0.204022
2713.35	0.205459
2722.99	0.205732
2732.64	0.207291
2742.28	0.207269
2751.92	0.209516
2761.56	0.209676
2771.21	0.209957
2780.85	0.210467
2790.49	0.211303
2800.13	0.212476
2809.78	0.212534
2819.42	0.214342
2829.06	0.215323
2838.7	0.216298
2848.34	0.217099
2857.99	0.215047
2867.63	0.216779
2877.27	0.217096
2886.91	0.219464
2896.56	0.218821
2906.2	0.219219
2915.84	0.222454
2925.48	0.220626
2935.13	0.218978
2944.77	0.222134
2954.41	0.22314
2964.05	0.223829
2973.7	0.224413
2983.34	0.225093
2992.98	0.225437
3002.62	0.22712
3012.26	0.229196
3021.91	0.230301
3031.55	0.230798
3041.19	0.233759
3050.83	0.233291
3060.48	0.236222
3070.12	0.236821
3079.76	0.236647
3089.4	0.239237
3099.05	0.236961
3108.69	0.240039
3118.33	0.239867
3127.97	0.241801
3137.61	0.242377
3147.26	0.24346
3156.9	0.243075
3166.54	0.248428
3176.18	0.247152
3185.83	0.247098
3195.47	0.245944
3205.11	0.24663
3214.75	0.249699
3224.4	0.248098
3234.04	0.250025
3243.68	0.249653
3253.32	0.250649
3262.97	0.24895
3272.61	0.25316
3282.25	0.252504
3291.89	0.252882
3301.53	0.255778
3311.18	0.256178
3320.82	0.255797
3330.46	0.259576
3340.1	0.256193
3349.75	0.256689
3359.39	0.260011
3369.03	0.260101
3378.67	0.260557
3388.32	0.257254
3397.96	0.260078
3407.6	0.257386
3417.24	0.260571
3426.89	0.259946
3436.53	0.264017
3446.17	0.262927
3455.81	0.261891
3465.45	0.261062
3475.1	0.261751
3484.74	0.267272
3494.38	0.265563
3504.02	0.266309
3513.67	0.264353
3523.31	0.262837
3532.95	0.264146
3542.59	0.265131
3552.24	0.266811
3561.88	0.265332
3571.52	0.265943
3581.16	0.263852
3590.8	0.263805
3600.45	0.263842
3610.09	0.26629
3619.73	0.265756
3629.37	0.266274
3639.02	0.269764
3648.66	0.268426
3658.3	0.266244
3667.94	0.270872
3677.59	0.270282
3687.23	0.274374
3696.87	0.270037
3706.51	0.273151
3716.16	0.278108
3725.8	0.274426
3735.44	0.276356
3745.08	0.284312
3754.72	0.277102
3764.37	0.276508
3774.01	0.28216
3783.65	0.281906
3793.29	0.281265
3802.94	0.283511
3812.58	0.279475
3822.22	0.286438
3831.86	0.283392
3841.51	0.283352
3851.15	0.281998
3860.79	0.2842
3870.43	0.285272
3880.07	0.285996
3889.72	0.283243
3899.36	0.285984
3909	0.286411
3918.64	0.289122
3928.29	0.290628
3937.93	0.286783
3947.57	0.286436
3957.21	0.291575
3966.86	0.288126
3976.5	0.292993
3986.14	0.291004
3995.78	0.29392
