Measurement: Infrared, Infrared Data Processed
Mineral: Glauberite
Rruff sample: R050350
Ideal chemistry: Na_2_Ca(S^6+^O_4_)_2_
Locality: Soda Lake, San Luis Obispo County, California, USA
Source: California Institute of Technology
Description: Colorless tabular crystal
Measured chemistry: Na_1.90_Ca_1.15_(S_.99_O_4_)_2_
x	intensity
399.193	0.0303436
408.835	0.0258293
418.477	0.0276755
428.12	0.0291538
437.762	0.0348514
447.404	0.0381837
457.047	0.0424135
466.689	0.0505988
476.331	0.0514549
485.974	0.038884
495.616	0.0350922
505.258	0.0362423
514.901	0.0385619
524.543	0.0391805
534.185	0.039717
543.828	0.0372309
553.47	0.0390107
563.112	0.039908
572.755	0.0461014
582.397	0.0602633
592.039	0.106615
601.682	0.291051
611.324	0.224296
620.966	0.134054
630.609	0.3254
640.251	0.146918
649.893	0.0804901
659.536	0.0202258
669.178	0.0166116
678.82	0.0155094
688.463	0.0151962
698.105	0.0150313
707.747	0.0147142
717.39	0.0156611
727.032	0.0155124
736.674	0.0161865
746.317	0.0165036
755.959	0.0166812
765.601	0.0163649
775.244	0.0183635
784.886	0.0180601
794.528	0.0188059
804.171	0.0189942
813.813	0.015445
823.455	0.0150582
833.098	0.0156292
842.74	0.0161823
852.382	0.0170106
862.025	0.0188104
871.667	0.0216757
881.309	0.0236184
890.952	0.0253354
900.594	0.0290198
910.236	0.0337757
919.879	0.0377424
929.521	0.0421917
939.163	0.0480226
948.806	0.0555852
958.448	0.0677557
968.09	0.0867237
977.733	0.115157
987.375	0.15315
997.017	0.195716
1006.66	0.23234
1016.3	0.276499
1025.94	0.322452
1035.59	0.375324
1045.23	0.438704
1054.87	0.521873
1064.51	0.624723
1074.16	0.735707
1083.8	0.798274
1093.44	0.753867
1103.08	0.663075
1112.72	0.535532
1122.37	0.529709
1132.01	0.480265
1141.65	0.365731
1151.3	0.300001
1160.94	0.22657
1170.58	0.170718
1180.22	0.130334
1189.86	0.0977578
1199.51	0.0655163
1209.15	0.0384962
1218.79	0.0208828
1228.43	0.0135092
1238.08	0.0102967
1247.72	0.00793952
1257.36	0.00617387
1267	0.00476547
1276.64	0.00424136
1286.29	0.00317267
1295.93	0.00269639
1305.57	0.00161989
1315.21	0.00113159
1324.86	0.00103741
1334.5	0.000130146
1344.14	-0.000347996
1353.78	-0.000762601
1363.43	-0.000890062
1373.07	-0.0012445
1382.71	-0.00111707
1392.35	-0.000402019
1401.99	-0.000729769
1411.64	-0.000555321
1421.28	-0.000906811
1430.92	-0.000382641
1440.57	-0.00102339
1450.21	-0.00185694
1459.85	-0.00247975
1469.49	-0.00197702
1479.13	-0.000819262
1488.78	-0.000376026
1498.42	-0.000585988
1508.06	-0.000129205
1517.7	-0.000592826
1527.35	-4.52918e-05
1536.99	0.0001963
1546.63	0.000612363
1556.27	0.000807174
1565.91	0.000647471
1575.56	0.000115486
1585.2	9.9908e-05
1594.84	-3.40304e-05
1604.48	0.000834521
1614.13	0.000938712
1623.77	0.00236199
1633.41	0.00223001
1643.05	0.00286029
1652.7	0.00176634
1662.34	0.00060867
1671.98	1.2188e-05
1681.62	-0.000192539
1691.27	0.000109059
1700.91	-0.00030596
1710.55	-0.00237936
1720.19	-0.00216354
1729.84	-0.0028988
1739.48	-0.00505902
1749.12	-0.00456185
1758.76	-0.00172898
1768.4	-0.000448936
1778.05	-0.000550118
1787.69	-0.000168441
1797.33	-2.65006e-05
1806.97	-0.000629066
1816.62	-0.00125466
1826.26	-0.000741461
1835.9	-0.000717116
1845.54	-0.000812886
1855.18	9.84806e-05
1864.83	-0.00161541
1874.47	-0.000982278
1884.11	-0.000724721
1893.75	-0.00107642
1903.4	-0.00230102
1913.04	-0.00132183
1922.68	-0.00207183
1932.32	-0.00321273
1941.97	-0.00421705
1951.61	-0.00440371
1961.25	-0.00793595
1970.89	-0.010528
1980.54	-0.00674194
1990.18	-0.00673989
1999.82	-0.00686867
2009.46	-0.00896416
2019.11	-0.0074863
2028.75	-0.0106387
2038.39	-0.00779047
2048.03	-0.0108114
2057.67	-0.00521694
2067.32	-0.00537213
2076.96	-0.00663772
2086.6	-0.00254966
2096.24	-0.00167931
2105.89	-0.00107546
2115.53	-0.000183843
2125.17	-0.00522998
2134.81	-0.0105224
2144.45	-0.0122579
2154.1	-0.0180397
2163.74	-0.0189511
2173.38	-0.0188838
2183.02	-0.0149222
2192.67	-0.0168224
2202.31	-0.0109993
2211.95	-0.0123226
2221.59	-0.0114132
2231.24	-0.00940657
2240.88	-0.00696927
2250.52	-0.00770525
2260.16	-0.00783254
2269.8	-0.00690496
2279.45	-0.00358482
2289.09	-0.00212917
2298.73	-0.00155996
2308.38	-0.000875762
2318.02	0.00154874
2327.66	0.00136564
2337.3	0.00109488
2346.94	0.000309936
2356.59	0.000853259
2366.23	0.00205142
2375.87	-0.000852288
2385.51	-0.00153014
2395.16	-0.00143037
2404.8	-0.00176725
2414.44	-0.00238146
2424.08	0.00011639
2433.72	-0.00140952
2443.37	0.000334736
2453.01	-0.000490888
2462.65	-0.000720509
2472.29	0.000156145
2481.94	-0.00230066
2491.58	-0.00049184
2501.22	-0.00119275
2510.86	-0.000271764
2520.51	-0.00134334
2530.15	-0.00128685
2539.79	0.00025653
2549.43	-0.00205265
2559.07	-0.000463379
2568.72	-0.000745502
2578.36	0.000417069
2588	-0.000236305
2597.64	0.00109518
2607.29	-0.00034378
2616.93	0.00138959
2626.57	0.000387867
2636.21	0.000620342
2645.86	0.00130831
2655.5	0.000517746
2665.14	0.000152163
2674.78	0.000120715
2684.43	-0.000254713
2694.07	0.000717824
2703.71	-0.000659338
2713.35	-0.000840575
2722.99	9.78969e-05
2732.64	-0.000679967
2742.28	-0.000185437
2751.92	-0.000863822
2761.56	-6.81669e-05
2771.21	8.14482e-05
2780.85	9.47244e-05
2790.49	-0.000856804
2800.13	-0.00150359
2809.78	-0.0014288
2819.42	-0.00190939
2829.06	-0.00173471
2838.7	-0.00392695
2848.34	-0.0123806
2857.99	-0.0117451
2867.63	-0.00678653
2877.27	-0.00587078
2886.91	-0.00683712
2896.56	-0.00935509
2906.2	-0.0125162
2915.84	-0.0180584
2925.48	-0.022641
2935.13	-0.0165455
2944.77	-0.00980006
2954.41	-0.00746528
2964.05	-0.00500443
2973.7	-0.00220432
2983.34	-0.00301063
2992.98	-0.000304018
3002.62	0.000759024
3012.26	0.00286484
3021.91	0.00254813
3031.55	0.00223132
3041.19	0.00264688
3050.83	0.00224369
3060.48	0.00307443
3070.12	0.00329162
3079.76	0.00418876
3089.4	0.0038184
3099.05	0.00364714
3108.69	0.00456168
3118.33	0.0036029
3127.97	0.00433845
3137.61	0.00895218
3147.26	0.00430713
3156.9	0.00408331
3166.54	0.00498161
3176.18	0.00458396
3185.83	0.00782864
3195.47	0.00544798
3205.11	0.00762005
3214.75	0.00557785
3224.4	0.00641948
3234.04	0.00589139
3243.68	0.00633814
3253.32	0.00781846
3262.97	0.00586331
3272.61	0.00782435
3282.25	0.00617395
3291.89	0.00855676
3301.53	0.00885334
3311.18	0.0103146
3320.82	0.00997162
3330.46	0.0107739
3340.1	0.00971396
3349.75	0.0105144
3359.39	0.0117386
3369.03	0.0113005
3378.67	0.0113223
3388.32	0.00961007
3397.96	0.0115457
3407.6	0.0133462
3417.24	0.0137231
3426.89	0.0101489
3436.53	0.0105857
3446.17	0.0109398
3455.81	0.00873888
3465.45	0.0123493
3475.1	0.0148621
3484.74	0.0135642
3494.38	0.0149107
3504.02	0.0123333
3513.67	0.0107186
3523.31	0.0138142
3532.95	0.01469
3542.59	0.0121505
3552.24	0.0119856
3561.88	0.0120326
3571.52	0.0119059
3581.16	0.00968306
3590.8	0.0101202
3600.45	0.0117585
3610.09	0.00978667
3619.73	0.0133509
3629.37	0.00532441
3639.02	0.00755483
3648.66	0.00463717
3658.3	0.00559199
3667.94	0.000624806
3677.59	0.00164062
3687.23	-0.0018047
3696.87	0.003472
3706.51	0.000508398
3716.16	0.00179218
3725.8	0.00319856
3735.44	-0.00286683
3745.08	0.00297392
3754.72	0.00135376
3764.37	0.00297749
3774.01	-0.0012039
3783.65	0.000790132
3793.29	-0.0002129
3802.94	-0.000310829
3812.58	-0.000550817
3822.22	0.00230579
3831.86	-0.00174727
3841.51	0.00690661
3851.15	0.00433484
3860.79	0.00330547
3870.43	0.00493395
3880.07	-0.00175474
3889.72	0.00312764
3899.36	0.00216279
3909	0.0040499
3918.64	0.00442747
3928.29	0.00424524
3937.93	-0.000412396
3947.57	-0.00129233
3957.21	0.00379811
3966.86	0.00153759
3976.5	0.000453964
3986.14	-0.000723234
3995.78	0.00156179
