Measurement: Infrared, Infrared Data Processed
Mineral: Grandidierite
Rruff sample: R050196
Ideal chemistry: MgAl_3_O_2_(BO_3_)SiO_4_
Locality: Madagascar
Source: Marcus Origlieri
Description: Aggregate of anhedral blue-green crystals
Measured chemistry: (Mg_0.829_Fe^2+^_0.169_Mn_0.002_)Al_3_(BO_3_)(SiO_4_)O_2_
x	intensity
374.123	0.275529
383.765	0.19722
393.407	0.201748
403.05	0.231659
412.692	0.25912
422.334	0.28227
431.976	0.248207
441.619	0.259237
451.261	0.222887
460.904	0.216339
470.546	0.220228
480.188	0.250245
489.83	0.260884
499.473	0.276969
509.115	0.274179
518.758	0.296296
528.4	0.301081
538.042	0.306867
547.684	0.300319
557.327	0.263301
566.969	0.267678
576.611	0.210602
586.254	0.170386
595.896	0.209116
605.538	0.178763
615.181	0.179017
624.823	0.166719
634.466	0.148111
644.108	0.135313
653.75	0.15679
663.393	0.183014
673.035	0.14851
682.677	0.125685
692.319	0.117496
701.962	0.113605
711.604	0.115366
721.246	0.118485
730.889	0.114856
740.531	0.114108
750.173	0.0784449
759.816	0.0538476
769.458	0.0431495
779.101	0.0386357
788.743	0.0526265
798.385	0.0421453
808.028	0.0312511
817.67	0.0283854
827.312	0.0287534
836.955	0.0323342
846.597	0.0393713
856.239	0.0537557
865.881	0.0830121
875.524	0.120691
885.166	0.128194
894.808	0.100084
904.451	0.0705668
914.093	0.05791
923.736	0.0636307
933.378	0.0873378
943.02	0.143029
952.663	0.222934
962.305	0.218542
971.947	0.186551
981.59	0.201934
991.232	0.187823
1000.87	0.158985
1010.52	0.131242
1020.16	0.109394
1029.8	0.0832722
1039.44	0.0587297
1049.09	0.0463075
1058.73	0.0443481
1068.37	0.0366745
1078.01	0.0296941
1087.65	0.024671
1097.3	0.0210745
1106.94	0.0177974
1116.58	0.0157428
1126.22	0.0137202
1135.87	0.0126349
1145.51	0.0119393
1155.15	0.0112644
1164.79	0.0109704
1174.44	0.0109193
1184.08	0.0111272
1193.72	0.0114787
1203.36	0.0124092
1213.01	0.0139574
1222.65	0.0163875
1232.29	0.0193953
1241.93	0.0231315
1251.58	0.0280071
1261.22	0.0367904
1270.86	0.0509404
1280.5	0.0718144
1290.14	0.103194
1299.79	0.135852
1309.43	0.144814
1319.07	0.13351
1328.71	0.110297
1338.36	0.0835427
1348	0.0642289
1357.64	0.0697796
1367.28	0.0865209
1376.92	0.0828545
1386.57	0.0803742
1396.21	0.103011
1405.85	0.118346
1415.49	0.111191
1425.14	0.087159
1434.78	0.056362
1444.42	0.0317658
1454.06	0.0431944
1463.71	0.0553741
1473.35	0.0360877
1482.99	0.0153398
1492.63	0.00644412
1502.28	0.00450131
1511.92	0.00374208
1521.56	0.00348122
1531.2	0.00319354
1540.85	0.00346231
1550.49	0.0036051
1560.13	0.00339467
1569.77	0.00349563
1579.41	0.00333523
1589.06	0.00335257
1598.7	0.00337479
1608.34	0.00344035
1617.98	0.00364037
1627.63	0.00369981
1637.27	0.00380952
1646.91	0.00408526
1656.55	0.00400793
1666.19	0.00339017
1675.84	0.00323748
1685.48	0.00317545
1695.12	0.00300055
1704.77	0.00256689
1714.41	0.00263312
1724.05	0.00239759
1733.69	0.00223322
1743.33	0.00127217
1752.98	0.00137024
1762.62	0.00153598
1772.26	0.00181938
1781.9	0.00160779
1791.55	0.00193246
1801.19	0.00182208
1810.83	0.00196578
1820.47	0.00225308
1830.12	0.0015725
1839.76	0.00212129
1849.4	0.00213052
1859.04	0.00200832
1868.68	0.00210679
1878.33	0.00146257
1887.97	0.00140137
1897.61	4.49299e-06
1907.25	-0.000213136
1916.9	0.000286862
1926.54	6.84208e-05
1936.18	0.000865232
1945.82	-0.000744099
1955.46	0.000203722
1965.11	-0.000151131
1974.75	-0.000592971
1984.39	0.0022419
1994.04	0.00113894
2003.68	-0.000317738
2013.32	0.000193246
2022.96	0.000494423
2032.6	0.00267837
2042.25	0.00341865
2051.89	0.00399926
2061.53	0.00355353
2071.17	0.00418181
2080.82	0.00381312
2090.46	0.00387914
2100.1	0.00433726
2109.74	0.00460639
2119.39	0.00390114
2129.03	0.00227833
2138.67	0.00421227
2148.31	0.00400073
2157.95	0.00365361
2167.6	0.00787957
2177.24	0.00769592
2186.88	0.0068728
2196.52	0.00669797
2206.17	0.00510107
2215.81	0.00610483
2225.45	0.00508839
2235.09	0.00679485
2244.74	0.00759458
2254.38	0.00632258
2264.02	0.00681263
2273.66	0.00698274
2283.3	0.00716342
2292.95	0.00730674
2302.59	0.00648089
2312.23	0.00637741
2321.87	0.00735757
2331.52	0.00574004
2341.16	0.00614744
2350.8	0.005589
2360.44	0.00630292
2370.09	0.00575547
2379.73	0.00572942
2389.37	0.00536516
2399.01	0.00597078
2408.66	0.00601245
2418.3	0.00592778
2427.94	0.00574638
2437.58	0.00598037
2447.22	0.00616956
2456.87	0.00572865
2466.51	0.00583067
2476.15	0.00524057
2485.79	0.00596278
2495.44	0.00523618
2505.08	0.00522255
2514.72	0.00528795
2524.36	0.00441889
2534.01	0.00464418
2543.65	0.00487676
2553.29	0.00500888
2562.93	0.00465552
2572.57	0.00443966
2582.22	0.00378841
2591.86	0.00481343
2601.5	0.0045638
2611.14	0.00410691
2620.79	0.00470519
2630.43	0.00506914
2640.07	0.00537053
2649.71	0.00537068
2659.36	0.00536777
2669	0.00519076
2678.64	0.00577676
2688.28	0.00575043
2697.93	0.00620164
2707.57	0.00631638
2717.21	0.00629702
2726.85	0.00650825
2736.49	0.00656623
2746.14	0.00630793
2755.78	0.00668413
2765.42	0.00674019
2775.06	0.00707955
2784.71	0.00666752
2794.35	0.00684428
2803.99	0.0067152
2813.63	0.00708477
2823.28	0.00709294
2832.92	0.0069254
2842.56	0.00788082
2852.2	0.00781327
2861.84	0.00801849
2871.49	0.00879166
2881.13	0.00920528
2890.77	0.00937684
2900.41	0.00988494
2910.06	0.00998911
2919.7	0.0102616
2929.34	0.00956778
2938.98	0.00936029
2948.62	0.0103457
2958.27	0.00963191
2967.91	0.00989229
2977.55	0.00951676
2987.2	0.0104812
2996.84	0.0101271
3006.48	0.0108758
3016.12	0.01059
3025.76	0.0114105
3035.41	0.0110799
3045.05	0.0127087
3054.69	0.0127933
3064.33	0.0129648
3073.98	0.0132037
3083.62	0.0138722
3093.26	0.0145858
3102.9	0.0136721
3112.55	0.0140337
3122.19	0.0148147
3131.83	0.0142533
3141.47	0.0146829
3151.11	0.0140099
3160.76	0.0140943
3170.4	0.0154113
3180.04	0.0148465
3189.68	0.0165348
3199.33	0.0154651
3208.97	0.0157833
3218.61	0.0154375
3228.25	0.0159852
3237.9	0.016679
3247.54	0.0169273
3257.18	0.0173763
3266.82	0.0177759
3276.47	0.0188152
3286.11	0.0189601
3295.75	0.0188464
3305.39	0.0186193
3315.03	0.0193519
3324.68	0.0185941
3334.32	0.0187817
3343.96	0.0193895
3353.6	0.0178689
3363.25	0.0187877
3372.89	0.0181975
3382.53	0.0176432
3392.17	0.0180126
3401.82	0.0191798
3411.46	0.0172288
3421.1	0.0184744
3430.74	0.017922
3440.39	0.0171734
3450.03	0.0182946
3459.67	0.0175057
3469.31	0.0178389
3478.95	0.0164131
3488.6	0.0157797
3498.24	0.0165175
3507.88	0.0159526
3517.52	0.0157568
3527.17	0.0159867
3536.81	0.0142846
3546.45	0.0154714
3556.09	0.0130935
3565.74	0.0138744
3575.38	0.0146886
3585.02	0.0138104
3594.66	0.0122376
3604.3	0.0135321
3613.95	0.0117895
3623.59	0.0122824
3633.23	0.0120439
3642.87	0.00974446
3652.52	0.00886427
3662.16	0.0082619
3671.8	0.00648885
3681.44	0.00778404
3691.09	0.00738561
3700.73	0.00737653
3710.37	0.0074167
3720.01	0.00766317
3729.66	0.00865238
3739.3	0.00892039
3748.94	0.00860868
3758.58	0.00909612
3768.22	0.00859838
3777.87	0.00699517
3787.51	0.00794959
3797.15	0.00850788
3806.79	0.00802005
3816.44	0.00893203
3826.08	0.00975414
3835.72	0.00709936
3845.36	0.00734607
3855.01	0.00766071
3864.65	0.0062965
3874.29	0.00686904
3883.93	0.00830047
3893.57	0.0084537
3903.22	0.00792907
3912.86	0.00790005
3922.5	0.0102282
3932.14	0.00970558
3941.79	0.00753893
3951.43	0.00653473
3961.07	0.0081965
3970.71	0.00844612
3980.36	0.0076143
3990	0.00973881
3999.64	0.0092009
