Measurement: Infrared, Infrared Data Processed
Mineral: Hausmannite
Rruff sample: R040091
Ideal chemistry: Mn^2+^Mn^3+^_2_O_4_
Locality: Germany
Source: University of Arizona Mineral Museum
Description: Mass of black octahedral crystals
Measured chemistry: (Mn^2+^_0.96_Zn_0.02_Mg_0.02_)Mn^3+^_2.00_O_4_
x	intensity
399.193	0
408.835	0.294925
418.477	0.29247
428.12	0.271738
437.762	0.263342
447.404	0.2532
457.047	0.259932
466.689	0.273935
476.331	0.288459
485.974	0.284437
495.616	0.271648
505.258	0.253933
514.901	0.230394
524.543	0.198937
534.185	0.167678
543.828	0.130627
553.47	0.0898744
563.112	0.0721351
572.755	0.107547
582.397	0.220666
592.039	0.341456
601.682	0.312701
611.324	0.267718
620.966	0.231149
630.609	0.199976
640.251	0.17284
649.893	0.148839
659.536	0.128834
669.178	0.109816
678.82	0.0889539
688.463	0.0623877
698.105	0.0390214
707.747	0.0310804
717.39	0.0267587
727.032	0.0227129
736.674	0.022665
746.317	0.0223013
755.959	0.0230731
765.601	0.0239486
775.244	0.0236008
784.886	0.023649
794.528	0.0242703
804.171	0.0257086
813.813	0.0285675
823.455	0.0330614
833.098	0.0377403
842.74	0.0399474
852.382	0.0452571
862.025	0.0548957
871.667	0.0979832
881.309	0.0881907
890.952	0.0530286
900.594	0.0513254
910.236	0.0499921
919.879	0.050439
929.521	0.0514469
939.163	0.0549533
948.806	0.0580912
958.448	0.0604168
968.09	0.0664048
977.733	0.0676908
987.375	0.0645801
997.017	0.0612784
1006.66	0.0576734
1016.3	0.0547932
1025.94	0.0513538
1035.59	0.0485829
1045.23	0.047175
1054.87	0.0464874
1064.51	0.0476384
1074.16	0.0491568
1083.8	0.0504048
1093.44	0.0488743
1103.08	0.045219
1112.72	0.0434109
1122.37	0.0439816
1132.01	0.0454003
1141.65	0.0461972
1151.3	0.0471163
1160.94	0.048622
1170.58	0.0496052
1180.22	0.0511998
1189.86	0.0523044
1199.51	0.053383
1209.15	0.0541276
1218.79	0.0553585
1228.43	0.0566798
1238.08	0.0582374
1247.72	0.060324
1257.36	0.0621775
1267	0.0644623
1276.64	0.066821
1286.29	0.0695487
1295.93	0.0726485
1305.57	0.0765044
1315.21	0.080428
1324.86	0.0848122
1334.5	0.0903659
1344.14	0.097265
1353.78	0.106398
1363.43	0.118076
1373.07	0.134346
1382.71	0.15663
1392.35	0.189899
1401.99	0.219732
1411.64	0.249219
1421.28	0.259572
1430.92	0.257397
1440.57	0.249193
1450.21	0.238027
1459.85	0.222804
1469.49	0.205638
1479.13	0.188449
1488.78	0.170936
1498.42	0.154067
1508.06	0.137598
1517.7	0.122236
1527.35	0.110059
1536.99	0.100167
1546.63	0.0924203
1556.27	0.0879467
1565.91	0.0859476
1575.56	0.0858411
1585.2	0.085366
1594.84	0.0843895
1604.48	0.0835664
1614.13	0.0830003
1623.77	0.0832174
1633.41	0.0828566
1643.05	0.0833616
1652.7	0.0836289
1662.34	0.0841875
1671.98	0.0845611
1681.62	0.0848388
1691.27	0.085519
1700.91	0.0862315
1710.55	0.0866486
1720.19	0.0873273
1729.84	0.0879771
1739.48	0.0879751
1749.12	0.0883739
1758.76	0.0888069
1768.4	0.0904568
1778.05	0.0910903
1787.69	0.093525
1797.33	0.0969696
1806.97	0.0935697
1816.62	0.0926623
1826.26	0.0945032
1835.9	0.0944871
1845.54	0.0954565
1855.18	0.0967929
1864.83	0.0966773
1874.47	0.0975195
1884.11	0.0974518
1893.75	0.097754
1903.4	0.0982689
1913.04	0.100253
1922.68	0.09918
1932.32	0.100774
1941.97	0.10066
1951.61	0.100177
1961.25	0.101887
1970.89	0.101726
1980.54	0.105395
1990.18	0.105121
1999.82	0.103626
2009.46	0.104887
2019.11	0.10513
2028.75	0.106883
2038.39	0.106556
2048.03	0.107831
2057.67	0.108201
2067.32	0.108675
2076.96	0.112121
2086.6	0.111695
2096.24	0.111951
2105.89	0.114207
2115.53	0.11299
2125.17	0.112517
2134.81	0.112676
2144.45	0.110965
2154.1	0.108972
2163.74	0.118094
2173.38	0.116576
2183.02	0.118024
2192.67	0.117315
2202.31	0.120244
2211.95	0.11935
2221.59	0.120709
2231.24	0.122296
2240.88	0.121458
2250.52	0.123973
2260.16	0.122729
2269.8	0.123089
2279.45	0.125664
2289.09	0.124998
2298.73	0.127037
2308.38	0.12711
2318.02	0.127085
2327.66	0.12705
2337.3	0.127217
2346.94	0.128094
2356.59	0.128626
2366.23	0.128676
2375.87	0.128552
2385.51	0.129087
2395.16	0.129172
2404.8	0.130851
2414.44	0.131514
2424.08	0.132341
2433.72	0.133002
2443.37	0.133812
2453.01	0.134705
2462.65	0.134991
2472.29	0.135309
2481.94	0.135529
2491.58	0.137019
2501.22	0.138255
2510.86	0.140952
2520.51	0.141054
2530.15	0.13946
2539.79	0.139465
2549.43	0.139793
2559.07	0.140455
2568.72	0.139553
2578.36	0.141519
2588	0.140758
2597.64	0.142741
2607.29	0.141682
2616.93	0.142984
2626.57	0.143819
2636.21	0.144694
2645.86	0.144019
2655.5	0.14462
2665.14	0.145317
2674.78	0.145183
2684.43	0.145396
2694.07	0.146383
2703.71	0.14646
2713.35	0.146192
2722.99	0.147416
2732.64	0.148125
2742.28	0.14769
2751.92	0.147819
2761.56	0.148337
2771.21	0.148702
2780.85	0.149525
2790.49	0.149681
2800.13	0.149884
2809.78	0.15026
2819.42	0.14996
2829.06	0.151142
2838.7	0.151605
2848.34	0.153059
2857.99	0.152806
2867.63	0.153339
2877.27	0.153982
2886.91	0.154507
2896.56	0.153612
2906.2	0.154414
2915.84	0.154708
2925.48	0.155159
2935.13	0.155764
2944.77	0.156089
2954.41	0.15683
2964.05	0.157331
2973.7	0.157875
2983.34	0.159266
2992.98	0.160455
3002.62	0.160362
3012.26	0.161143
3021.91	0.161802
3031.55	0.162993
3041.19	0.163035
3050.83	0.163633
3060.48	0.165231
3070.12	0.165387
3079.76	0.166383
3089.4	0.168257
3099.05	0.167958
3108.69	0.169351
3118.33	0.169556
3127.97	0.168054
3137.61	0.17132
3147.26	0.168964
3156.9	0.17098
3166.54	0.171269
3176.18	0.170411
3185.83	0.172901
3195.47	0.172806
3205.11	0.173953
3214.75	0.172664
3224.4	0.175386
3234.04	0.175478
3243.68	0.175416
3253.32	0.175734
3262.97	0.17595
3272.61	0.178705
3282.25	0.177011
3291.89	0.177622
3301.53	0.177625
3311.18	0.177996
3320.82	0.178001
3330.46	0.179532
3340.1	0.18053
3349.75	0.181132
3359.39	0.18159
3369.03	0.182226
3378.67	0.181586
3388.32	0.181635
3397.96	0.182832
3407.6	0.183336
3417.24	0.183883
3426.89	0.183689
3436.53	0.183339
3446.17	0.183716
3455.81	0.184791
3465.45	0.183305
3475.1	0.186282
3484.74	0.186491
3494.38	0.187369
3504.02	0.186932
3513.67	0.187203
3523.31	0.187596
3532.95	0.189864
3542.59	0.189259
3552.24	0.188589
3561.88	0.187131
3571.52	0.187756
3581.16	0.189297
3590.8	0.189039
3600.45	0.190098
3610.09	0.187796
3619.73	0.191143
3629.37	0.188503
3639.02	0.193449
3648.66	0.193316
3658.3	0.193592
3667.94	0.196599
3677.59	0.198426
3687.23	0.201909
3696.87	0.199481
3706.51	0.195949
3716.16	0.194068
3725.8	0.193991
3735.44	0.195782
3745.08	0.193909
3754.72	0.197363
3764.37	0.198814
3774.01	0.196924
3783.65	0.198807
3793.29	0.200126
3802.94	0.196643
3812.58	0.19813
3822.22	0.198002
3831.86	0.200727
3841.51	0.201391
3851.15	0.198617
3860.79	0.200777
3870.43	0.202302
3880.07	0.198462
3889.72	0.201563
3899.36	0.202722
3909	0.201816
3918.64	0.202648
3928.29	0.204348
3937.93	0.207052
3947.57	0.205625
3957.21	0.206803
3966.86	0.203962
3976.5	0.208273
3986.14	0.206457
3995.78	0.207943
