Measurement: Infrared, Infrared Data Processed
Mineral: Helvine
Rruff sample: R060059
Ideal chemistry: Mn^2+^_4_(BeSiO_4_)_3_S^2-^
Locality: Schwarzenberg, Saxony, Germany
Source: University of Arizona Mineral Museum
Description: Yellow-tan colored tetrahedra
Measured chemistry: (Mn^2+^_2.93_Fe^2+^_0.48_Zn_0.35_Ca_0.15_Fe^3+^_0.09_)_Σ=4_Be_3.00_((Si_0.97_Al_0.03_)_Σ=1_O_4_)_3_S_1.00_; BeO assumed by stoichiometry
x	intensity
399.193	0.109713
408.835	0.146402
418.477	0.208947
428.12	0.112914
437.762	0.149855
447.404	0.1698
457.047	0.183136
466.689	0.195751
476.331	0.209876
485.974	0.227343
495.616	0.249263
505.258	0.274639
514.901	0.293448
524.543	0.290138
534.185	0.243244
543.828	0.15396
553.47	0.0827252
563.112	0.0441475
572.755	0.0343589
582.397	0.0349475
592.039	0.0401624
601.682	0.0494451
611.324	0.0622776
620.966	0.0793659
630.609	0.101287
640.251	0.127278
649.893	0.154509
659.536	0.186251
669.178	0.219305
678.82	0.249897
688.463	0.277734
698.105	0.296308
707.747	0.26622
717.39	0.193652
727.032	0.154563
736.674	0.186989
746.317	0.168204
755.959	0.152199
765.601	0.211079
775.244	0.159875
784.886	0.0850206
794.528	0.0571132
804.171	0.0471696
813.813	0.0468323
823.455	0.0544029
833.098	0.0689387
842.74	0.0943908
852.382	0.134104
862.025	0.18736
871.667	0.249695
881.309	0.303583
890.952	0.346514
900.594	0.369112
910.236	0.348813
919.879	0.320673
929.521	0.272473
939.163	0.258221
948.806	0.279256
958.448	0.217732
968.09	0.174862
977.733	0.143255
987.375	0.117736
997.017	0.0931787
1006.66	0.0705512
1016.3	0.0531189
1025.94	0.0419752
1035.59	0.0359
1045.23	0.0320368
1054.87	0.025603
1064.51	0.0210384
1074.16	0.017917
1083.8	0.0154293
1093.44	0.0133123
1103.08	0.0118145
1112.72	0.0108545
1122.37	0.010112
1132.01	0.00929001
1141.65	0.00861062
1151.3	0.0080657
1160.94	0.00772358
1170.58	0.00731655
1180.22	0.0070637
1189.86	0.0069922
1199.51	0.00682371
1209.15	0.00681362
1218.79	0.00655619
1228.43	0.00651559
1238.08	0.00636487
1247.72	0.00658946
1257.36	0.00672452
1267	0.00677507
1276.64	0.00736485
1286.29	0.00771049
1295.93	0.00804742
1305.57	0.00820104
1315.21	0.00815851
1324.86	0.00807607
1334.5	0.0083233
1344.14	0.0083319
1353.78	0.00856059
1363.43	0.0084331
1373.07	0.00897671
1382.71	0.00990797
1392.35	0.0106784
1401.99	0.0118354
1411.64	0.0130765
1421.28	0.013753
1430.92	0.0147629
1440.57	0.0155957
1450.21	0.0157205
1459.85	0.0153218
1469.49	0.0151177
1479.13	0.0149213
1488.78	0.014081
1498.42	0.0134279
1508.06	0.0120525
1517.7	0.0119623
1527.35	0.0115414
1536.99	0.0108223
1546.63	0.011032
1556.27	0.010163
1565.91	0.0113758
1575.56	0.0106776
1585.2	0.0120932
1594.84	0.0120497
1604.48	0.0124451
1614.13	0.0124023
1623.77	0.0124209
1633.41	0.0125554
1643.05	0.0129948
1652.7	0.0107281
1662.34	0.0127079
1671.98	0.0126582
1681.62	0.0127511
1691.27	0.013171
1700.91	0.0114526
1710.55	0.0129583
1720.19	0.0122092
1729.84	0.0119008
1739.48	0.0106268
1749.12	0.0102462
1758.76	0.0111827
1768.4	0.0112978
1778.05	0.0116669
1787.69	0.0122022
1797.33	0.0121906
1806.97	0.0124368
1816.62	0.012294
1826.26	0.0125774
1835.9	0.0127095
1845.54	0.0125407
1855.18	0.0128886
1864.83	0.0128322
1874.47	0.0121532
1884.11	0.0124007
1893.75	0.0119382
1903.4	0.0122049
1913.04	0.0128764
1922.68	0.0122879
1932.32	0.0121679
1941.97	0.0106507
1951.61	0.0106398
1961.25	0.0107711
1970.89	0.0106112
1980.54	0.014229
1990.18	0.0118617
1999.82	0.0124367
2009.46	0.0126661
2019.11	0.0130901
2028.75	0.0133739
2038.39	0.015823
2048.03	0.0167261
2057.67	0.0163873
2067.32	0.016571
2076.96	0.016723
2086.6	0.0173653
2096.24	0.0167091
2105.89	0.0173353
2115.53	0.0173944
2125.17	0.0158105
2134.81	0.0152829
2144.45	0.0153223
2154.1	0.0139406
2163.74	0.019453
2173.38	0.018892
2183.02	0.019275
2192.67	0.01934
2202.31	0.0190849
2211.95	0.020188
2221.59	0.0203864
2231.24	0.020264
2240.88	0.0206078
2250.52	0.0209711
2260.16	0.0212796
2269.8	0.0219353
2279.45	0.0222801
2289.09	0.0225117
2298.73	0.0217848
2308.38	0.0218768
2318.02	0.0222303
2327.66	0.0211484
2337.3	0.0209755
2346.94	0.0207841
2356.59	0.0206941
2366.23	0.0203299
2375.87	0.02056
2385.51	0.0206578
2395.16	0.0204881
2404.8	0.021108
2414.44	0.0211761
2424.08	0.0216614
2433.72	0.021514
2443.37	0.0220766
2453.01	0.0218494
2462.65	0.0222018
2472.29	0.0218433
2481.94	0.02217
2491.58	0.0226446
2501.22	0.0223443
2510.86	0.023169
2520.51	0.0229204
2530.15	0.0230525
2539.79	0.022938
2549.43	0.0232858
2559.07	0.0233888
2568.72	0.0241652
2578.36	0.0241271
2588	0.0244302
2597.64	0.0241281
2607.29	0.0248557
2616.93	0.0252907
2626.57	0.0251972
2636.21	0.0252335
2645.86	0.0256767
2655.5	0.025354
2665.14	0.024831
2674.78	0.0252167
2684.43	0.0255551
2694.07	0.0252272
2703.71	0.0258306
2713.35	0.0260524
2722.99	0.0259798
2732.64	0.0262501
2742.28	0.026293
2751.92	0.026394
2761.56	0.0269266
2771.21	0.0270549
2780.85	0.0267572
2790.49	0.027233
2800.13	0.0270791
2809.78	0.0273843
2819.42	0.0272569
2829.06	0.0276592
2838.7	0.0279499
2848.34	0.0263787
2857.99	0.0270161
2867.63	0.027572
2877.27	0.0277189
2886.91	0.0275581
2896.56	0.0272505
2906.2	0.0279341
2915.84	0.0260923
2925.48	0.0267206
2935.13	0.0274115
2944.77	0.0275577
2954.41	0.0285042
2964.05	0.028468
2973.7	0.0280228
2983.34	0.0284432
2992.98	0.028383
3002.62	0.0287519
3012.26	0.0289341
3021.91	0.0291026
3031.55	0.0288948
3041.19	0.0291783
3050.83	0.0297569
3060.48	0.0292826
3070.12	0.0297552
3079.76	0.0299029
3089.4	0.0301504
3099.05	0.0305923
3108.69	0.0303684
3118.33	0.0305542
3127.97	0.0306573
3137.61	0.0305929
3147.26	0.0312222
3156.9	0.0315994
3166.54	0.0318697
3176.18	0.0317437
3185.83	0.0327142
3195.47	0.0317005
3205.11	0.0321675
3214.75	0.0315856
3224.4	0.0325178
3234.04	0.0333668
3243.68	0.0332997
3253.32	0.0330521
3262.97	0.0333244
3272.61	0.0341098
3282.25	0.0341465
3291.89	0.0349269
3301.53	0.0348904
3311.18	0.0354479
3320.82	0.0350459
3330.46	0.035138
3340.1	0.0359648
3349.75	0.0362302
3359.39	0.0364193
3369.03	0.0365024
3378.67	0.0368137
3388.32	0.0370063
3397.96	0.0366201
3407.6	0.0365323
3417.24	0.0365747
3426.89	0.0365994
3436.53	0.0358515
3446.17	0.0365157
3455.81	0.0361142
3465.45	0.0367294
3475.1	0.036313
3484.74	0.0374151
3494.38	0.0375304
3504.02	0.0372039
3513.67	0.0380276
3523.31	0.037916
3532.95	0.0387303
3542.59	0.039308
3552.24	0.0381873
3561.88	0.0385055
3571.52	0.037497
3581.16	0.0368914
3590.8	0.0364433
3600.45	0.0352416
3610.09	0.0339139
3619.73	0.0344136
3629.37	0.0339685
3639.02	0.0354236
3648.66	0.0324058
3658.3	0.0337161
3667.94	0.0329825
3677.59	0.0328123
3687.23	0.0319045
3696.87	0.0325966
3706.51	0.0330995
3716.16	0.0339524
3725.8	0.0334368
3735.44	0.0319539
3745.08	0.0308788
3754.72	0.0339739
3764.37	0.0347288
3774.01	0.0351202
3783.65	0.0351145
3793.29	0.0356642
3802.94	0.0330531
3812.58	0.0348248
3822.22	0.0332836
3831.86	0.0338174
3841.51	0.0351906
3851.15	0.032363
3860.79	0.0334997
3870.43	0.0339306
3880.07	0.0345121
3889.72	0.0346191
3899.36	0.0343068
3909	0.0346698
3918.64	0.0351176
3928.29	0.0349001
3937.93	0.0346946
3947.57	0.0353783
3957.21	0.0361819
3966.86	0.0365712
3976.5	0.0358116
3986.14	0.0367527
3995.78	0.0364727
