Measurement: Infrared, Infrared Data Processed
Mineral: Howlite
Rruff sample: R050588
Ideal chemistry: Ca_2_B_5_SiO_9_(OH)_5_
Locality: Lake Bras d'Or, Iona, Cape Breton Island, Victoria County, Nova Scotia, Canada
Source: Rock Currier
Description: Group of tan colored tabular to prismatic single crystals
Measured chemistry: Ca_2.01_B_5.00_Si_0.99_O_9_(OH)_5_ ; B and OH not measured but estimated by difference and charge balance.
x	intensity
399.193	0.0790242
408.835	0.07584
418.477	0.0919236
428.12	0.113877
437.762	0.122895
447.404	0.151446
457.047	0.128553
466.689	0.129426
476.331	0.108355
485.974	0.102385
495.616	0.0956098
505.258	0.094714
514.901	0.116938
524.543	0.121313
534.185	0.11443
543.828	0.0902891
553.47	0.110485
563.112	0.111267
572.755	0.0841874
582.397	0.133638
592.039	0.212542
601.682	0.138699
611.324	0.115595
620.966	0.104369
630.609	0.0569905
640.251	0.068806
649.893	0.0962931
659.536	0.11854
669.178	0.153302
678.82	0.181793
688.463	0.119773
698.105	0.060098
707.747	0.0692792
717.39	0.0522399
727.032	0.0596841
736.674	0.0686988
746.317	0.0865929
755.959	0.081516
765.601	0.0945156
775.244	0.122289
784.886	0.126849
794.528	0.15715
804.171	0.193085
813.813	0.235501
823.455	0.277577
833.098	0.259112
842.74	0.218511
852.382	0.233337
862.025	0.244242
871.667	0.242282
881.309	0.236976
890.952	0.233318
900.594	0.269322
910.236	0.265412
919.879	0.260111
929.521	0.285923
939.163	0.337305
948.806	0.356334
958.448	0.333327
968.09	0.27976
977.733	0.235338
987.375	0.251414
997.017	0.276666
1006.66	0.265834
1016.3	0.247009
1025.94	0.212256
1035.59	0.192239
1045.23	0.179675
1054.87	0.167061
1064.51	0.143993
1074.16	0.119041
1083.8	0.105471
1093.44	0.10562
1103.08	0.108628
1112.72	0.101964
1122.37	0.113151
1132.01	0.133003
1141.65	0.121512
1151.3	0.10152
1160.94	0.0961808
1170.58	0.0922246
1180.22	0.0835977
1189.86	0.0778573
1199.51	0.0711245
1209.15	0.0645169
1218.79	0.0680752
1228.43	0.0631133
1238.08	0.0501827
1247.72	0.0336317
1257.36	0.02237
1267	0.0165678
1276.64	0.0142492
1286.29	0.0145094
1295.93	0.0175876
1305.57	0.0295494
1315.21	0.0743005
1324.86	0.128352
1334.5	0.101077
1344.14	0.0636074
1353.78	0.0479551
1363.43	0.0410457
1373.07	0.0311651
1382.71	0.0329431
1392.35	0.030033
1401.99	0.053526
1411.64	0.104617
1421.28	0.0986491
1430.92	0.0610641
1440.57	0.05182
1450.21	0.0518186
1459.85	0.0414936
1469.49	0.0173884
1479.13	0.0105437
1488.78	0.00765101
1498.42	0.00599305
1508.06	0.0047929
1517.7	0.00351754
1527.35	0.00287418
1536.99	0.00232314
1546.63	0.00280656
1556.27	0.0017583
1565.91	0.00118968
1575.56	0.000966362
1585.2	0.000761547
1594.84	0.000991156
1604.48	0.000578494
1614.13	0.000554833
1623.77	0.000352545
1633.41	0.000793811
1643.05	0.000180059
1652.7	0.000689218
1662.34	0.000312922
1671.98	-0.000266146
1681.62	-0.000180897
1691.27	-0.000266303
1700.91	-0.000348886
1710.55	-0.00204573
1720.19	-0.00271734
1729.84	-0.00347039
1739.48	-0.00577289
1749.12	-0.00354427
1758.76	-0.00102734
1768.4	0.000310789
1778.05	0.000928038
1787.69	0.000489718
1797.33	0.00102933
1806.97	0.000465885
1816.62	9.5169e-05
1826.26	0.000998884
1835.9	0.000655721
1845.54	0.000265925
1855.18	0.000514113
1864.83	0.000138296
1874.47	-0.00102279
1884.11	-0.000157117
1893.75	-0.00114209
1903.4	-0.00136673
1913.04	-0.00158778
1922.68	-0.00132137
1932.32	-0.00319232
1941.97	-0.0028058
1951.61	-0.00447036
1961.25	-0.00254429
1970.89	-0.00623982
1980.54	-0.00382466
1990.18	-0.00181922
1999.82	-0.00358552
2009.46	-0.00323519
2019.11	-0.00401503
2028.75	-0.0021937
2038.39	-0.00406561
2048.03	-0.000981522
2057.67	-0.00219839
2067.32	-0.00266468
2076.96	-0.00123382
2086.6	-0.00221846
2096.24	-0.00186807
2105.89	-0.000121473
2115.53	-0.000994684
2125.17	-0.00346637
2134.81	-0.00401224
2144.45	-0.0046079
2154.1	-0.00632117
2163.74	0.00465293
2173.38	0.00146877
2183.02	-0.00187676
2192.67	0.000534795
2202.31	0.000458516
2211.95	0.000556439
2221.59	0.00130128
2231.24	0.00290551
2240.88	0.00136886
2250.52	0.000589943
2260.16	0.0013097
2269.8	0.00137553
2279.45	0.00171452
2289.09	0.0044811
2298.73	0.00366667
2308.38	0.00334986
2318.02	0.00458441
2327.66	0.00365777
2337.3	0.00312783
2346.94	0.00364921
2356.59	0.00325852
2366.23	0.00372995
2375.87	0.00370888
2385.51	0.00298631
2395.16	0.00376926
2404.8	0.00335252
2414.44	0.00300407
2424.08	0.00189637
2433.72	0.00310343
2443.37	0.00409533
2453.01	0.00459512
2462.65	0.00253326
2472.29	0.00277287
2481.94	0.000748448
2491.58	0.00413462
2501.22	0.00372584
2510.86	0.00490087
2520.51	0.00500182
2530.15	0.00382302
2539.79	0.00324535
2549.43	0.00558251
2559.07	0.00461559
2568.72	0.00410765
2578.36	0.00415214
2588	0.00363055
2597.64	0.00312231
2607.29	0.00651662
2616.93	0.00434455
2626.57	0.00423135
2636.21	0.00233756
2645.86	0.0022407
2655.5	0.00220619
2665.14	0.00220297
2674.78	0.00324764
2684.43	0.00326987
2694.07	0.00366006
2703.71	0.00327379
2713.35	0.00413991
2722.99	0.00498845
2732.64	0.00471579
2742.28	0.00424162
2751.92	0.00524414
2761.56	0.00539193
2771.21	0.00522861
2780.85	0.00670137
2790.49	0.0049854
2800.13	0.00570467
2809.78	0.00562615
2819.42	0.00421051
2829.06	0.00324984
2838.7	0.00344798
2848.34	0.00543171
2857.99	0.00576499
2867.63	0.00440951
2877.27	0.00421282
2886.91	0.00458705
2896.56	0.00468706
2906.2	0.00370883
2915.84	0.00690835
2925.48	0.00668728
2935.13	0.00967558
2944.77	0.00945435
2954.41	0.00836473
2964.05	0.0117238
2973.7	0.00916426
2983.34	0.0113957
2992.98	0.0107481
3002.62	0.0152522
3012.26	0.013375
3021.91	0.014536
3031.55	0.0103533
3041.19	0.0155641
3050.83	0.0140377
3060.48	0.0146085
3070.12	0.0152434
3079.76	0.0167793
3089.4	0.0184812
3099.05	0.0191636
3108.69	0.0181108
3118.33	0.018336
3127.97	0.0219413
3137.61	0.0217622
3147.26	0.0227497
3156.9	0.0266559
3166.54	0.0286972
3176.18	0.0328811
3185.83	0.0384816
3195.47	0.0449807
3205.11	0.0474929
3214.75	0.05067
3224.4	0.0466683
3234.04	0.0385253
3243.68	0.0309881
3253.32	0.0268664
3262.97	0.022694
3272.61	0.0216469
3282.25	0.0219047
3291.89	0.0205462
3301.53	0.0223448
3311.18	0.0216003
3320.82	0.0210063
3330.46	0.024728
3340.1	0.0194526
3349.75	0.0241535
3359.39	0.0212365
3369.03	0.0300321
3378.67	0.0349771
3388.32	0.0441382
3397.96	0.0556972
3407.6	0.0642042
3417.24	0.0455628
3426.89	0.0299163
3436.53	0.02199
3446.17	0.0224218
3455.81	0.0244984
3465.45	0.0283918
3475.1	0.0311153
3484.74	0.0407825
3494.38	0.0517168
3504.02	0.047649
3513.67	0.0348101
3523.31	0.0264646
3532.95	0.0310302
3542.59	0.0317875
3552.24	0.0489607
3561.88	0.0797472
3571.52	0.052582
3581.16	0.0305292
3590.8	0.0219051
3600.45	0.0118323
3610.09	0.0125671
3619.73	0.00950304
3629.37	0.00693427
3639.02	0.00881181
3648.66	0.00715728
3658.3	0.00316539
3667.94	0.00714835
3677.59	0.00475178
3687.23	0.0067291
3696.87	0.00615329
3706.51	0.0101188
3716.16	0.0079018
3725.8	0.00774517
3735.44	0.0109993
3745.08	0.00882209
3754.72	0.00835429
3764.37	0.00783274
3774.01	0.00714756
3783.65	0.00756578
3793.29	0.00207451
3802.94	0.00592777
3812.58	0.0067185
3822.22	0.00897413
3831.86	0.00788541
3841.51	0.00837378
3851.15	0.00945265
3860.79	0.00737796
3870.43	0.0111401
3880.07	0.00977049
3889.72	0.0108923
3899.36	0.00824475
3909	0.0146786
3918.64	0.0125196
3928.29	0.00844574
3937.93	0.0119825
3947.57	0.00833946
3957.21	0.016908
3966.86	0.00601787
3976.5	0.0126793
3986.14	0.00702912
3995.78	0.0102095
