Measurement: Infrared, Infrared Data Processed
Mineral: Ilvaite
Rruff sample: R050040
Ideal chemistry: CaFe^2+^_2_Fe^3+^OSi_2_O_7_(OH)
Locality: Capo Calamita, Isle of Elba, Italy
Source: University of Arizona Mineral Museum
Description: Brown fragment
Measured chemistry: Ca_1.00_(Fe^2+^_1.89_Mn_0.10_Mg_0.01_)_Î£=2_Fe^3+^_1.00_OSi_2.00_O_7_(OH); trace amounts of Al; OH estimated by charge balance
x	intensity
399.193	0
408.835	0.201407
418.477	0.248407
428.12	0.260248
437.762	0.234372
447.404	0.21237
457.047	0.178844
466.689	0.165982
476.331	0.184239
485.974	0.192034
495.616	0.182945
505.258	0.141589
514.901	0.112084
524.543	0.101145
534.185	0.112044
543.828	0.100376
553.47	0.0804736
563.112	0.0788258
572.755	0.0925472
582.397	0.0633309
592.039	0.0474904
601.682	0.0436208
611.324	0.0436708
620.966	0.0452008
630.609	0.0481929
640.251	0.0522424
649.893	0.0535742
659.536	0.0568459
669.178	0.0626274
678.82	0.0719704
688.463	0.0875642
698.105	0.119394
707.747	0.141921
717.39	0.0945519
727.032	0.0885723
736.674	0.0959011
746.317	0.112524
755.959	0.133685
765.601	0.157223
775.244	0.183249
784.886	0.211134
794.528	0.238783
804.171	0.264677
813.813	0.27949
823.455	0.258397
833.098	0.210223
842.74	0.189432
852.382	0.211332
862.025	0.232447
871.667	0.259128
881.309	0.273236
890.952	0.285996
900.594	0.284477
910.236	0.241719
919.879	0.194363
929.521	0.159043
939.163	0.138987
948.806	0.14718
958.448	0.154901
968.09	0.161412
977.733	0.152662
987.375	0.129709
997.017	0.111412
1006.66	0.119207
1016.3	0.151749
1025.94	0.179813
1035.59	0.148776
1045.23	0.114883
1054.87	0.0882585
1064.51	0.0637197
1074.16	0.0435848
1083.8	0.0313179
1093.44	0.0261602
1103.08	0.023727
1112.72	0.0230937
1122.37	0.0226152
1132.01	0.0217785
1141.65	0.0215829
1151.3	0.0217079
1160.94	0.021633
1170.58	0.0218638
1180.22	0.0222791
1189.86	0.0227512
1199.51	0.0232327
1209.15	0.0238432
1218.79	0.0245539
1228.43	0.0254176
1238.08	0.0262422
1247.72	0.0267873
1257.36	0.0276391
1267	0.0287109
1276.64	0.0296674
1286.29	0.0308982
1295.93	0.0321153
1305.57	0.0331593
1315.21	0.0337241
1324.86	0.0351054
1334.5	0.0360523
1344.14	0.0377534
1353.78	0.0393546
1363.43	0.0409886
1373.07	0.0428395
1382.71	0.0463207
1392.35	0.0515767
1401.99	0.0585178
1411.64	0.064784
1421.28	0.0693543
1430.92	0.0731583
1440.57	0.0754474
1450.21	0.0760981
1459.85	0.0752064
1469.49	0.0732007
1479.13	0.0708401
1488.78	0.0666953
1498.42	0.0626384
1508.06	0.0592127
1517.7	0.0558071
1527.35	0.0536043
1536.99	0.0523763
1546.63	0.0525828
1556.27	0.051725
1565.91	0.0535254
1575.56	0.0532046
1585.2	0.0547935
1594.84	0.0556088
1604.48	0.0560959
1614.13	0.0558753
1623.77	0.0569026
1633.41	0.0567795
1643.05	0.0582752
1652.7	0.0572553
1662.34	0.0598857
1671.98	0.0609387
1681.62	0.0608624
1691.27	0.0613648
1700.91	0.0622152
1710.55	0.0624086
1720.19	0.0628423
1729.84	0.063679
1739.48	0.0644336
1749.12	0.0657926
1758.76	0.0675529
1768.4	0.0696503
1778.05	0.0714672
1787.69	0.073458
1797.33	0.0741844
1806.97	0.0733175
1816.62	0.0722261
1826.26	0.071615
1835.9	0.0718822
1845.54	0.0717961
1855.18	0.0711651
1864.83	0.0717907
1874.47	0.0729185
1884.11	0.0724127
1893.75	0.0718141
1903.4	0.0730545
1913.04	0.0738359
1922.68	0.0734093
1932.32	0.0735232
1941.97	0.0748633
1951.61	0.0713495
1961.25	0.0713262
1970.89	0.0697774
1980.54	0.0735534
1990.18	0.0729045
1999.82	0.0709118
2009.46	0.0710675
2019.11	0.0734865
2028.75	0.0710572
2038.39	0.0711214
2048.03	0.0738627
2057.67	0.0752772
2067.32	0.0762496
2076.96	0.0753286
2086.6	0.0770384
2096.24	0.0769389
2105.89	0.0785865
2115.53	0.0789865
2125.17	0.0787921
2134.81	0.0788922
2144.45	0.079134
2154.1	0.0767578
2163.74	0.0859034
2173.38	0.0842791
2183.02	0.0849964
2192.67	0.0873116
2202.31	0.0863189
2211.95	0.0888999
2221.59	0.0876559
2231.24	0.088155
2240.88	0.0882977
2250.52	0.0888146
2260.16	0.0896416
2269.8	0.0914822
2279.45	0.0921317
2289.09	0.0925244
2298.73	0.0933302
2308.38	0.0930315
2318.02	0.0943751
2327.66	0.093491
2337.3	0.0941364
2346.94	0.0947562
2356.59	0.094465
2366.23	0.0940996
2375.87	0.094987
2385.51	0.0961076
2395.16	0.0960164
2404.8	0.0981402
2414.44	0.09882
2424.08	0.100466
2433.72	0.10021
2443.37	0.100934
2453.01	0.102549
2462.65	0.102933
2472.29	0.102547
2481.94	0.103303
2491.58	0.10532
2501.22	0.105453
2510.86	0.105816
2520.51	0.105328
2530.15	0.107814
2539.79	0.107001
2549.43	0.108951
2559.07	0.108815
2568.72	0.109681
2578.36	0.111181
2588	0.111672
2597.64	0.112816
2607.29	0.114384
2616.93	0.113811
2626.57	0.113922
2636.21	0.116733
2645.86	0.116139
2655.5	0.117488
2665.14	0.117038
2674.78	0.118142
2684.43	0.119475
2694.07	0.120373
2703.71	0.120332
2713.35	0.122867
2722.99	0.122823
2732.64	0.124358
2742.28	0.124271
2751.92	0.125658
2761.56	0.127537
2771.21	0.128482
2780.85	0.129178
2790.49	0.129809
2800.13	0.131704
2809.78	0.1331
2819.42	0.132638
2829.06	0.134145
2838.7	0.135698
2848.34	0.136451
2857.99	0.137316
2867.63	0.137798
2877.27	0.139712
2886.91	0.140557
2896.56	0.142947
2906.2	0.143954
2915.84	0.146045
2925.48	0.146184
2935.13	0.147103
2944.77	0.14874
2954.41	0.149086
2964.05	0.151669
2973.7	0.150391
2983.34	0.152841
2992.98	0.152587
3002.62	0.152296
3012.26	0.152635
3021.91	0.152221
3031.55	0.150358
3041.19	0.150982
3050.83	0.148484
3060.48	0.146514
3070.12	0.143716
3079.76	0.142663
3089.4	0.139373
3099.05	0.138869
3108.69	0.137849
3118.33	0.134987
3127.97	0.135257
3137.61	0.132158
3147.26	0.131571
3156.9	0.130816
3166.54	0.128137
3176.18	0.127478
3185.83	0.125729
3195.47	0.124407
3205.11	0.123372
3214.75	0.1248
3224.4	0.122087
3234.04	0.121119
3243.68	0.12224
3253.32	0.121216
3262.97	0.120244
3272.61	0.119406
3282.25	0.120082
3291.89	0.119301
3301.53	0.119574
3311.18	0.119722
3320.82	0.119572
3330.46	0.120748
3340.1	0.119673
3349.75	0.12063
3359.39	0.122083
3369.03	0.12217
3378.67	0.123155
3388.32	0.122816
3397.96	0.121254
3407.6	0.120828
3417.24	0.122909
3426.89	0.123448
3436.53	0.124189
3446.17	0.123206
3455.81	0.124663
3465.45	0.123001
3475.1	0.12424
3484.74	0.12554
3494.38	0.126143
3504.02	0.126078
3513.67	0.125742
3523.31	0.124684
3532.95	0.125419
3542.59	0.124757
3552.24	0.12744
3561.88	0.127084
3571.52	0.128065
3581.16	0.126309
3590.8	0.124709
3600.45	0.128599
3610.09	0.125555
3619.73	0.126322
3629.37	0.128065
3639.02	0.12683
3648.66	0.125442
3658.3	0.128694
3667.94	0.126691
3677.59	0.130692
3687.23	0.128516
3696.87	0.132998
3706.51	0.129139
3716.16	0.129717
3725.8	0.132084
3735.44	0.130708
3745.08	0.134394
3754.72	0.131756
3764.37	0.134924
3774.01	0.136116
3783.65	0.136034
3793.29	0.13681
3802.94	0.134149
3812.58	0.136415
3822.22	0.136416
3831.86	0.137662
3841.51	0.136661
3851.15	0.13656
3860.79	0.139093
3870.43	0.139848
3880.07	0.138736
3889.72	0.140334
3899.36	0.141651
3909	0.140435
3918.64	0.141679
3928.29	0.143886
3937.93	0.143405
3947.57	0.141622
3957.21	0.145488
3966.86	0.143995
3976.5	0.143553
3986.14	0.144726
3995.78	0.149599
