Measurement: Infrared, Infrared Data Processed
Mineral: Inyoite
Rruff sample: R040161
Ideal chemistry: CaB_3_O_3_(OH)_5_4H_2_O
Locality: Kramer deposit, Boron, Kern County, California, USA
Source: University of Arizona Mineral Museum
Description: Group of colorless indistinct rounded crystals
Measured chemistry: Ca_1.00_B_3.00_O_3_(OH)_5_Â·4H_2_O
x	intensity
399.193	0
408.835	0.0864948
418.477	0.0790712
428.12	0.0816427
437.762	0.0927692
447.404	0.105353
457.047	0.119745
466.689	0.121724
476.331	0.107148
485.974	0.108517
495.616	0.100969
505.258	0.0865915
514.901	0.0888199
524.543	0.103503
534.185	0.13257
543.828	0.138156
553.47	0.122165
563.112	0.113498
572.755	0.107225
582.397	0.100797
592.039	0.0911274
601.682	0.0812236
611.324	0.0814428
620.966	0.0767146
630.609	0.0805651
640.251	0.0867202
649.893	0.0939053
659.536	0.101739
669.178	0.114621
678.82	0.129711
688.463	0.13663
698.105	0.139827
707.747	0.141591
717.39	0.136541
727.032	0.131833
736.674	0.108837
746.317	0.100466
755.959	0.0933623
765.601	0.0877636
775.244	0.0941831
784.886	0.115067
794.528	0.156094
804.171	0.190098
813.813	0.123611
823.455	0.0795283
833.098	0.0799248
842.74	0.0970817
852.382	0.123261
862.025	0.153214
871.667	0.175468
881.309	0.188548
890.952	0.201948
900.594	0.167389
910.236	0.133315
919.879	0.135423
929.521	0.141206
939.163	0.148286
948.806	0.177992
958.448	0.202125
968.09	0.185572
977.733	0.174646
987.375	0.166071
997.017	0.166995
1006.66	0.175785
1016.3	0.146064
1025.94	0.119223
1035.59	0.118288
1045.23	0.13285
1054.87	0.160861
1064.51	0.166145
1074.16	0.143092
1083.8	0.134046
1093.44	0.14211
1103.08	0.14741
1112.72	0.1397
1122.37	0.124575
1132.01	0.112074
1141.65	0.110142
1151.3	0.122573
1160.94	0.142716
1170.58	0.148872
1180.22	0.12575
1189.86	0.0953394
1199.51	0.0818296
1209.15	0.0789993
1218.79	0.0779621
1228.43	0.0702876
1238.08	0.0611471
1247.72	0.0542555
1257.36	0.0465051
1267	0.040966
1276.64	0.0391224
1286.29	0.0413514
1295.93	0.0477995
1305.57	0.0617487
1315.21	0.0908196
1324.86	0.131568
1334.5	0.140753
1344.14	0.117378
1353.78	0.0946922
1363.43	0.0852956
1373.07	0.0897306
1382.71	0.100019
1392.35	0.0959574
1401.99	0.101717
1411.64	0.129498
1421.28	0.144691
1430.92	0.121441
1440.57	0.0892615
1450.21	0.0589743
1459.85	0.0508558
1469.49	0.057858
1479.13	0.0519438
1488.78	0.0332262
1498.42	0.024627
1508.06	0.0215341
1517.7	0.020069
1527.35	0.0194553
1536.99	0.0190345
1546.63	0.0192485
1556.27	0.0194145
1565.91	0.0197975
1575.56	0.0200919
1585.2	0.0206365
1594.84	0.021818
1604.48	0.0226593
1614.13	0.0242247
1623.77	0.0271176
1633.41	0.033897
1643.05	0.048198
1652.7	0.0535059
1662.34	0.0378213
1671.98	0.0317678
1681.62	0.0298885
1691.27	0.0284034
1700.91	0.0242039
1710.55	0.0195213
1720.19	0.0165554
1729.84	0.0143518
1739.48	0.0123847
1749.12	0.0110177
1758.76	0.0109703
1768.4	0.0102522
1778.05	0.0104542
1787.69	0.0100244
1797.33	0.0101475
1806.97	0.00940522
1816.62	0.00892904
1826.26	0.00927929
1835.9	0.00894017
1845.54	0.00817957
1855.18	0.00853235
1864.83	0.00815873
1874.47	0.00879109
1884.11	0.00791174
1893.75	0.00769697
1903.4	0.00736283
1913.04	0.00641992
1922.68	0.00536777
1932.32	0.00541616
1941.97	0.00451644
1951.61	0.00465405
1961.25	0.00385653
1970.89	0.00342259
1980.54	0.00608387
1990.18	0.00475563
1999.82	0.00562447
2009.46	0.00544079
2019.11	0.00390007
2028.75	0.00338516
2038.39	0.00664912
2048.03	0.00825267
2057.67	0.00702675
2067.32	0.00799331
2076.96	0.00956684
2086.6	0.00966109
2096.24	0.00907569
2105.89	0.010328
2115.53	0.00981325
2125.17	0.00832808
2134.81	0.00617038
2144.45	0.00633754
2154.1	0.00335302
2163.74	0.0138914
2173.38	0.00822316
2183.02	0.00989365
2192.67	0.00817471
2202.31	0.00909078
2211.95	0.00868459
2221.59	0.011665
2231.24	0.0105594
2240.88	0.0121274
2250.52	0.0124829
2260.16	0.0124522
2269.8	0.0139763
2279.45	0.0138689
2289.09	0.0146177
2298.73	0.0141285
2308.38	0.0139115
2318.02	0.0151059
2327.66	0.0141972
2337.3	0.0139179
2346.94	0.0143699
2356.59	0.0139379
2366.23	0.013685
2375.87	0.0139119
2385.51	0.0134322
2395.16	0.0142068
2404.8	0.0134133
2414.44	0.0135599
2424.08	0.014126
2433.72	0.0149245
2443.37	0.0148708
2453.01	0.014964
2462.65	0.0151693
2472.29	0.015324
2481.94	0.015611
2491.58	0.014975
2501.22	0.0143784
2510.86	0.0155837
2520.51	0.0140537
2530.15	0.0147723
2539.79	0.0141173
2549.43	0.0134065
2559.07	0.0140292
2568.72	0.0149476
2578.36	0.0145687
2588	0.0151321
2597.64	0.0158433
2607.29	0.0158397
2616.93	0.0152393
2626.57	0.0161833
2636.21	0.0161569
2645.86	0.0155724
2655.5	0.0152521
2665.14	0.0155075
2674.78	0.0157729
2684.43	0.015954
2694.07	0.0160174
2703.71	0.0165892
2713.35	0.0167881
2722.99	0.0180299
2732.64	0.0183443
2742.28	0.0186622
2751.92	0.01947
2761.56	0.0198512
2771.21	0.0200538
2780.85	0.0209996
2790.49	0.0222526
2800.13	0.0223147
2809.78	0.0231135
2819.42	0.0233485
2829.06	0.0249882
2838.7	0.0264358
2848.34	0.02615
2857.99	0.0268087
2867.63	0.0291391
2877.27	0.0304957
2886.91	0.0333333
2896.56	0.0353551
2906.2	0.0356819
2915.84	0.0377284
2925.48	0.038407
2935.13	0.0404785
2944.77	0.0435836
2954.41	0.0457978
2964.05	0.0486813
2973.7	0.053212
2983.34	0.0565424
2992.98	0.0594035
3002.62	0.0647376
3012.26	0.0691065
3021.91	0.0734918
3031.55	0.0791333
3041.19	0.0844582
3050.83	0.090627
3060.48	0.0984268
3070.12	0.106747
3079.76	0.113383
3089.4	0.123289
3099.05	0.130401
3108.69	0.133847
3118.33	0.138858
3127.97	0.13884
3137.61	0.1396
3147.26	0.139647
3156.9	0.14303
3166.54	0.147664
3176.18	0.152506
3185.83	0.158627
3195.47	0.16227
3205.11	0.17141
3214.75	0.177804
3224.4	0.182467
3234.04	0.187285
3243.68	0.190128
3253.32	0.188911
3262.97	0.187317
3272.61	0.182952
3282.25	0.182921
3291.89	0.182552
3301.53	0.189201
3311.18	0.194198
3320.82	0.198825
3330.46	0.203259
3340.1	0.197628
3349.75	0.190214
3359.39	0.179489
3369.03	0.174297
3378.67	0.172432
3388.32	0.174731
3397.96	0.17884
3407.6	0.18277
3417.24	0.196348
3426.89	0.214005
3436.53	0.242389
3446.17	0.259387
3455.81	0.226829
3465.45	0.182576
3475.1	0.156356
3484.74	0.147527
3494.38	0.147125
3504.02	0.152987
3513.67	0.153014
3523.31	0.166981
3532.95	0.223032
3542.59	0.174261
3552.24	0.105485
3561.88	0.0744561
3571.52	0.0568218
3581.16	0.0479294
3590.8	0.0405514
3600.45	0.0358308
3610.09	0.0306719
3619.73	0.0286183
3629.37	0.0211643
3639.02	0.0181647
3648.66	0.0157888
3658.3	0.0150298
3667.94	0.0105175
3677.59	0.0101338
3687.23	0.0100854
3696.87	0.0089278
3706.51	0.0108208
3716.16	0.00773746
3725.8	0.0117572
3735.44	0.00924602
3745.08	0.00937737
3754.72	0.00863256
3764.37	0.00940934
3774.01	0.0111743
3783.65	0.0107171
3793.29	0.0104172
3802.94	0.0119476
3812.58	0.0115511
3822.22	0.0117357
3831.86	0.00957993
3841.51	0.00913904
3851.15	0.00896797
3860.79	0.0113991
3870.43	0.0106193
3880.07	0.0139569
3889.72	0.0136724
3899.36	0.0132105
3909	0.0108219
3918.64	0.012857
3928.29	0.0126462
3937.93	0.0145418
3947.57	0.0132807
3957.21	0.0126944
3966.86	0.0119146
3976.5	0.013468
3986.14	0.0135579
3995.78	0.0134643
