Measurement: Infrared, Infrared Data Processed
Mineral: Jamesonite
Rruff sample: R050430
Ideal chemistry: Pb^2+^_4_Fe^2+^Sb^3+^_6_S^2-^_14_
Locality: Zacatecas, Mexico
Source: University of Arizona Mineral Museum
Description: Grayish black coarsely acicular crystals
Measured chemistry: Pb_4.02_Fe_1.00_Sb_5.98_S_14.00_
x	intensity
399.193	0.210433
408.835	0.215752
418.477	0.220405
428.12	0.225944
437.762	0.236603
447.404	0.253407
457.047	0.261736
466.689	0.267817
476.331	0.276831
485.974	0.283034
495.616	0.291329
505.258	0.300994
514.901	0.305835
524.543	0.314944
534.185	0.320868
543.828	0.327418
553.47	0.333632
563.112	0.338232
572.755	0.346291
582.397	0.35097
592.039	0.355911
601.682	0.358971
611.324	0.364958
620.966	0.370047
630.609	0.375674
640.251	0.379132
649.893	0.381959
659.536	0.388558
669.178	0.392555
678.82	0.396794
688.463	0.401204
698.105	0.406241
707.747	0.411841
717.39	0.41409
727.032	0.417853
736.674	0.422596
746.317	0.424987
755.959	0.430146
765.601	0.432417
775.244	0.437297
784.886	0.440977
794.528	0.444787
804.171	0.448632
813.813	0.453296
823.455	0.458344
833.098	0.463342
842.74	0.466676
852.382	0.473739
862.025	0.47691
871.667	0.484743
881.309	0.486575
890.952	0.489765
900.594	0.493729
910.236	0.497989
919.879	0.503658
929.521	0.508657
939.163	0.511879
948.806	0.516783
958.448	0.520461
968.09	0.525299
977.733	0.528986
987.375	0.533492
997.017	0.536089
1006.66	0.542045
1016.3	0.546306
1025.94	0.549751
1035.59	0.553516
1045.23	0.558513
1054.87	0.561971
1064.51	0.566318
1074.16	0.571134
1083.8	0.574573
1093.44	0.578481
1103.08	0.58158
1112.72	0.585446
1122.37	0.589393
1132.01	0.594877
1141.65	0.599821
1151.3	0.601614
1160.94	0.601645
1170.58	0.603362
1180.22	0.606505
1189.86	0.609825
1199.51	0.613446
1209.15	0.616511
1218.79	0.619068
1228.43	0.620255
1238.08	0.623605
1247.72	0.626232
1257.36	0.628348
1267	0.631008
1276.64	0.634079
1286.29	0.637867
1295.93	0.642019
1305.57	0.644967
1315.21	0.648043
1324.86	0.650983
1334.5	0.654535
1344.14	0.658749
1353.78	0.661408
1363.43	0.666383
1373.07	0.6697
1382.71	0.6731
1392.35	0.676625
1401.99	0.681116
1411.64	0.686677
1421.28	0.689911
1430.92	0.69199
1440.57	0.696253
1450.21	0.697871
1459.85	0.699461
1469.49	0.700419
1479.13	0.701703
1488.78	0.704748
1498.42	0.706457
1508.06	0.710475
1517.7	0.712703
1527.35	0.715083
1536.99	0.719651
1546.63	0.723315
1556.27	0.725853
1565.91	0.729296
1575.56	0.731836
1585.2	0.735185
1594.84	0.737359
1604.48	0.739724
1614.13	0.743295
1623.77	0.744871
1633.41	0.749346
1643.05	0.749597
1652.7	0.753032
1662.34	0.754006
1671.98	0.757454
1681.62	0.759939
1691.27	0.763374
1700.91	0.765539
1710.55	0.767883
1720.19	0.771129
1729.84	0.775293
1739.48	0.776499
1749.12	0.77908
1758.76	0.780071
1768.4	0.783641
1778.05	0.785912
1787.69	0.787212
1797.33	0.789641
1806.97	0.789012
1816.62	0.793465
1826.26	0.793705
1835.9	0.794905
1845.54	0.799024
1855.18	0.800451
1864.83	0.801252
1874.47	0.805354
1884.11	0.805794
1893.75	0.80805
1903.4	0.807085
1913.04	0.811754
1922.68	0.810916
1932.32	0.807551
1941.97	0.804308
1951.61	0.801422
1961.25	0.791313
1970.89	0.793773
1980.54	0.794705
1990.18	0.800343
1999.82	0.802513
2009.46	0.789211
2019.11	0.795098
2028.75	0.801213
2038.39	0.811617
2048.03	0.820126
2057.67	0.831771
2067.32	0.83779
2076.96	0.844395
2086.6	0.845527
2096.24	0.851939
2105.89	0.850609
2115.53	0.856852
2125.17	0.852889
2134.81	0.85113
2144.45	0.841314
2154.1	0.828566
2163.74	0.834997
2173.38	0.842032
2183.02	0.849374
2192.67	0.855349
2202.31	0.859405
2211.95	0.862517
2221.59	0.872583
2231.24	0.871831
2240.88	0.883825
2250.52	0.887301
2260.16	0.890669
2269.8	0.901799
2279.45	0.904761
2289.09	0.913114
2298.73	0.91393
2308.38	0.921392
2318.02	0.924904
2327.66	0.926138
2337.3	0.928124
2346.94	0.932149
2356.59	0.934614
2366.23	0.933082
2375.87	0.935464
2385.51	0.937508
2395.16	0.937393
2404.8	0.942777
2414.44	0.943434
2424.08	0.943058
2433.72	0.947807
2443.37	0.951166
2453.01	0.953473
2462.65	0.957525
2472.29	0.956379
2481.94	0.961289
2491.58	0.961238
2501.22	0.96581
2510.86	0.96654
2520.51	0.971811
2530.15	0.972918
2539.79	0.972479
2549.43	0.979024
2559.07	0.978472
2568.72	0.981463
2578.36	0.983365
2588	0.985759
2597.64	0.990933
2607.29	0.99203
2616.93	0.997891
2626.57	1.00399
2636.21	1.00251
2645.86	1.00769
2655.5	1.01231
2665.14	1.01309
2674.78	1.01304
2684.43	1.01872
2694.07	1.0213
2703.71	1.02129
2713.35	1.02372
2722.99	1.02598
2732.64	1.02701
2742.28	1.03018
2751.92	1.03229
2761.56	1.03321
2771.21	1.03679
2780.85	1.03891
2790.49	1.0386
2800.13	1.04281
2809.78	1.04504
2819.42	1.04654
2829.06	1.05056
2838.7	1.05214
2848.34	1.05655
2857.99	1.05418
2867.63	1.05721
2877.27	1.06332
2886.91	1.06476
2896.56	1.06569
2906.2	1.06947
2915.84	1.06986
2925.48	1.0673
2935.13	1.07041
2944.77	1.06987
2954.41	1.07618
2964.05	1.07551
2973.7	1.07228
2983.34	1.07593
2992.98	1.0799
3002.62	1.08058
3012.26	1.08279
3021.91	1.08315
3031.55	1.0872
3041.19	1.08786
3050.83	1.09317
3060.48	1.09189
3070.12	1.09522
3079.76	1.09534
3089.4	1.09726
3099.05	1.09699
3108.69	1.10308
3118.33	1.10371
3127.97	1.108
3137.61	1.10886
3147.26	1.1113
3156.9	1.11199
3166.54	1.11231
3176.18	1.11703
3185.83	1.12143
3195.47	1.121
3205.11	1.12148
3214.75	1.12663
3224.4	1.12919
3234.04	1.12977
3243.68	1.13442
3253.32	1.13506
3262.97	1.13476
3272.61	1.14007
3282.25	1.14176
3291.89	1.14398
3301.53	1.14917
3311.18	1.15293
3320.82	1.15364
3330.46	1.14459
3340.1	1.15661
3349.75	1.15423
3359.39	1.15943
3369.03	1.15855
3378.67	1.16752
3388.32	1.16401
3397.96	1.16501
3407.6	1.16658
3417.24	1.16703
3426.89	1.17331
3436.53	1.17287
3446.17	1.17625
3455.81	1.17328
3465.45	1.17467
3475.1	1.18037
3484.74	1.17893
3494.38	1.17971
3504.02	1.181
3513.67	1.18463
3523.31	1.18323
3532.95	1.18989
3542.59	1.18327
3552.24	1.18376
3561.88	1.19052
3571.52	1.19387
3581.16	1.19093
3590.8	1.19495
3600.45	1.19425
3610.09	1.2049
3619.73	1.19744
3629.37	1.20248
3639.02	1.2114
3648.66	1.2048
3658.3	1.20471
3667.94	1.20868
3677.59	1.21723
3687.23	1.21343
3696.87	1.21164
3706.51	1.21956
3716.16	1.22252
3725.8	1.22515
3735.44	1.22669
3745.08	1.22955
3754.72	1.2286
3764.37	1.24263
3774.01	1.23176
3783.65	1.24735
3793.29	1.24168
3802.94	1.23318
3812.58	1.24253
3822.22	1.2429
3831.86	1.24243
3841.51	1.24807
3851.15	1.24714
3860.79	1.2569
3870.43	1.25222
3880.07	1.25533
3889.72	1.25957
3899.36	1.25941
3909	1.26194
3918.64	1.2648
3928.29	1.26119
3937.93	1.27149
3947.57	1.26379
3957.21	1.26966
3966.86	1.26681
3976.5	1.27585
3986.14	1.27108
3995.78	1.27666
