Measurement: Infrared, Infrared Data Processed
Mineral: Langbanite
Rruff sample: R050664
Ideal chemistry: Mn^2+^_4_Mn^3+^_9_Sb^5+^O_16_(SiO_4_)_2_
Locality: Langban, Filipstad, Varmland, Sweden
Source: University of Arizona Mineral Museum
Description: Black metallic crystals
Measured chemistry: (Mn^2+^_3.79_Ca_0.21_)_Σ=4_(Mn^3+^_6.45_Fe^3+^_2.55_)_Σ=9_Sb^5+^_1.00_O_16_(Si_1.00_O_4_)_2_
x	intensity
399.193	0.348062
408.835	0.390923
418.477	0.374114
428.12	0.340379
437.762	0.340206
447.404	0.355069
457.047	0.368224
466.689	0.377609
476.331	0.36657
485.974	0.328741
495.616	0.287737
505.258	0.272265
514.901	0.251099
524.543	0.252154
534.185	0.289306
543.828	0.317669
553.47	0.306489
563.112	0.302068
572.755	0.358588
582.397	0.390061
592.039	0.381803
601.682	0.358923
611.324	0.338512
620.966	0.309471
630.609	0.279467
640.251	0.258836
649.893	0.232504
659.536	0.214019
669.178	0.177328
678.82	0.138922
688.463	0.10972
698.105	0.0919038
707.747	0.0807594
717.39	0.0815316
727.032	0.0845119
736.674	0.0765105
746.317	0.0680444
755.959	0.0640883
765.601	0.0544774
775.244	0.0440642
784.886	0.0402689
794.528	0.0405315
804.171	0.0449375
813.813	0.0498731
823.455	0.0568656
833.098	0.0669146
842.74	0.080886
852.382	0.114208
862.025	0.150238
871.667	0.19197
881.309	0.173992
890.952	0.169892
900.594	0.275769
910.236	0.343581
919.879	0.352784
929.521	0.352624
939.163	0.302874
948.806	0.238666
958.448	0.182695
968.09	0.148624
977.733	0.112881
987.375	0.0738112
997.017	0.0561738
1006.66	0.0464568
1016.3	0.0400608
1025.94	0.0366776
1035.59	0.0353423
1045.23	0.0338769
1054.87	0.0316807
1064.51	0.0299457
1074.16	0.0293818
1083.8	0.0311601
1093.44	0.0333489
1103.08	0.0364157
1112.72	0.0381944
1122.37	0.035116
1132.01	0.0308201
1141.65	0.0336772
1151.3	0.0317247
1160.94	0.0285133
1170.58	0.0285413
1180.22	0.0295629
1189.86	0.0302274
1199.51	0.0304807
1209.15	0.0296726
1218.79	0.0300939
1228.43	0.0307302
1238.08	0.0313281
1247.72	0.0319929
1257.36	0.0333443
1267	0.0346115
1276.64	0.0369337
1286.29	0.0375742
1295.93	0.0383088
1305.57	0.0383632
1315.21	0.0406838
1324.86	0.0420649
1334.5	0.043465
1344.14	0.0456253
1353.78	0.0473458
1363.43	0.048992
1373.07	0.0516153
1382.71	0.0544129
1392.35	0.0576648
1401.99	0.0607069
1411.64	0.0652327
1421.28	0.0684376
1430.92	0.0710159
1440.57	0.0733556
1450.21	0.0737368
1459.85	0.0742897
1469.49	0.0748488
1479.13	0.0739441
1488.78	0.0732023
1498.42	0.0724313
1508.06	0.0717771
1517.7	0.0717348
1527.35	0.0713343
1536.99	0.0723193
1546.63	0.0729894
1556.27	0.0734524
1565.91	0.0748708
1575.56	0.0752494
1585.2	0.0766982
1594.84	0.0786168
1604.48	0.0797057
1614.13	0.0805181
1623.77	0.0812646
1633.41	0.0824795
1643.05	0.0836838
1652.7	0.0846637
1662.34	0.0859582
1671.98	0.0865824
1681.62	0.0868963
1691.27	0.0880526
1700.91	0.0895437
1710.55	0.0910628
1720.19	0.0917624
1729.84	0.0944821
1739.48	0.0937535
1749.12	0.093689
1758.76	0.0948654
1768.4	0.0964662
1778.05	0.0966917
1787.69	0.0984612
1797.33	0.099773
1806.97	0.10042
1816.62	0.100078
1826.26	0.101448
1835.9	0.10308
1845.54	0.103865
1855.18	0.104346
1864.83	0.104655
1874.47	0.106123
1884.11	0.108869
1893.75	0.108311
1903.4	0.108724
1913.04	0.10922
1922.68	0.110914
1932.32	0.112191
1941.97	0.109508
1951.61	0.110403
1961.25	0.114905
1970.89	0.112012
1980.54	0.119077
1990.18	0.121153
1999.82	0.11864
2009.46	0.120411
2019.11	0.124797
2028.75	0.126181
2038.39	0.127478
2048.03	0.124581
2057.67	0.129635
2067.32	0.131002
2076.96	0.128952
2086.6	0.129187
2096.24	0.129719
2105.89	0.131197
2115.53	0.130837
2125.17	0.133324
2134.81	0.132399
2144.45	0.135115
2154.1	0.12824
2163.74	0.143923
2173.38	0.139075
2183.02	0.145153
2192.67	0.143579
2202.31	0.140068
2211.95	0.142395
2221.59	0.141528
2231.24	0.144284
2240.88	0.143173
2250.52	0.145971
2260.16	0.149557
2269.8	0.148714
2279.45	0.150086
2289.09	0.149817
2298.73	0.149978
2308.38	0.149426
2318.02	0.152918
2327.66	0.151382
2337.3	0.150567
2346.94	0.151338
2356.59	0.151444
2366.23	0.151757
2375.87	0.152432
2385.51	0.152574
2395.16	0.156454
2404.8	0.154787
2414.44	0.156288
2424.08	0.158177
2433.72	0.159185
2443.37	0.157992
2453.01	0.158642
2462.65	0.160949
2472.29	0.161817
2481.94	0.162617
2491.58	0.16258
2501.22	0.162251
2510.86	0.163837
2520.51	0.165381
2530.15	0.165579
2539.79	0.164572
2549.43	0.165346
2559.07	0.167349
2568.72	0.16684
2578.36	0.166856
2588	0.167735
2597.64	0.169791
2607.29	0.169626
2616.93	0.170628
2626.57	0.171051
2636.21	0.173166
2645.86	0.172442
2655.5	0.172784
2665.14	0.172957
2674.78	0.171746
2684.43	0.174475
2694.07	0.17479
2703.71	0.176669
2713.35	0.176629
2722.99	0.176928
2732.64	0.17846
2742.28	0.176025
2751.92	0.179614
2761.56	0.178851
2771.21	0.180093
2780.85	0.181356
2790.49	0.180615
2800.13	0.181353
2809.78	0.181296
2819.42	0.182595
2829.06	0.183687
2838.7	0.184529
2848.34	0.186836
2857.99	0.185877
2867.63	0.185537
2877.27	0.188261
2886.91	0.187229
2896.56	0.188539
2906.2	0.190183
2915.84	0.191868
2925.48	0.193651
2935.13	0.192611
2944.77	0.192986
2954.41	0.192035
2964.05	0.192882
2973.7	0.19261
2983.34	0.192456
2992.98	0.193985
3002.62	0.194037
3012.26	0.1927
3021.91	0.194189
3031.55	0.196945
3041.19	0.197129
3050.83	0.196998
3060.48	0.197734
3070.12	0.19888
3079.76	0.198475
3089.4	0.197376
3099.05	0.199064
3108.69	0.199077
3118.33	0.202342
3127.97	0.201914
3137.61	0.201033
3147.26	0.200899
3156.9	0.202621
3166.54	0.204418
3176.18	0.203585
3185.83	0.205882
3195.47	0.206253
3205.11	0.206064
3214.75	0.20516
3224.4	0.204723
3234.04	0.206657
3243.68	0.207013
3253.32	0.206411
3262.97	0.206209
3272.61	0.210293
3282.25	0.210461
3291.89	0.208757
3301.53	0.208648
3311.18	0.211104
3320.82	0.210807
3330.46	0.211197
3340.1	0.211738
3349.75	0.213903
3359.39	0.211689
3369.03	0.214178
3378.67	0.210528
3388.32	0.211676
3397.96	0.211149
3407.6	0.213222
3417.24	0.215072
3426.89	0.211071
3436.53	0.211122
3446.17	0.212543
3455.81	0.217422
3465.45	0.213106
3475.1	0.214364
3484.74	0.210325
3494.38	0.215287
3504.02	0.21313
3513.67	0.213362
3523.31	0.213915
3532.95	0.215235
3542.59	0.212606
3552.24	0.212073
3561.88	0.212659
3571.52	0.214133
3581.16	0.209546
3590.8	0.208704
3600.45	0.214065
3610.09	0.209848
3619.73	0.219161
3629.37	0.212778
3639.02	0.210139
3648.66	0.209078
3658.3	0.210213
3667.94	0.210542
3677.59	0.210235
3687.23	0.210254
3696.87	0.215324
3706.51	0.214763
3716.16	0.209139
3725.8	0.215615
3735.44	0.212271
3745.08	0.21261
3754.72	0.212474
3764.37	0.215957
3774.01	0.214923
3783.65	0.215821
3793.29	0.219489
3802.94	0.221313
3812.58	0.214763
3822.22	0.215624
3831.86	0.216793
3841.51	0.217291
3851.15	0.218518
3860.79	0.216879
3870.43	0.215147
3880.07	0.222852
3889.72	0.219228
3899.36	0.213749
3909	0.219866
3918.64	0.221098
3928.29	0.220283
3937.93	0.220967
3947.57	0.220342
3957.21	0.218924
3966.86	0.219603
3976.5	0.219462
3986.14	0.221725
3995.78	0.224538
