Measurement: Infrared, Infrared Data Processed
Mineral: Lawsonite
Rruff sample: R050042
Ideal chemistry: CaAl_2_Si_2_O_7_(OH)_2_H_2_O
Locality: California, USA
Source: University of Arizona Mineral Museum
Description: White to colorless fragments
Measured chemistry: (Ca_0.98_Fe^2+^_0.02_)Al_2.00_Si_2.00_O_7_(OH)_2_Â·H_2_O
x	intensity
399.193	0
408.835	0.197821
418.477	0.207024
428.12	0.192871
437.762	0.211392
447.404	0.220743
457.047	0.226488
466.689	0.225246
476.331	0.22012
485.974	0.212988
495.616	0.205242
505.258	0.197667
514.901	0.186906
524.543	0.178145
534.185	0.183364
543.828	0.183138
553.47	0.196278
563.112	0.221119
572.755	0.22205
582.397	0.208131
592.039	0.193122
601.682	0.179046
611.324	0.16115
620.966	0.139737
630.609	0.116319
640.251	0.0943628
649.893	0.0775471
659.536	0.0662531
669.178	0.0594846
678.82	0.0556818
688.463	0.0471164
698.105	0.0386109
707.747	0.0360339
717.39	0.0373148
727.032	0.0399068
736.674	0.0434238
746.317	0.0471208
755.959	0.0491627
765.601	0.0513052
775.244	0.0544341
784.886	0.0596093
794.528	0.066931
804.171	0.0767568
813.813	0.0897181
823.455	0.107829
833.098	0.132082
842.74	0.164162
852.382	0.20451
862.025	0.24973
871.667	0.291944
881.309	0.300353
890.952	0.262245
900.594	0.231122
910.236	0.244272
919.879	0.257117
929.521	0.250548
939.163	0.241607
948.806	0.226533
958.448	0.206761
968.09	0.183704
977.733	0.167335
987.375	0.15658
997.017	0.149736
1006.66	0.141774
1016.3	0.119803
1025.94	0.0891808
1035.59	0.063865
1045.23	0.0468898
1054.87	0.0362529
1064.51	0.0290751
1074.16	0.0242364
1083.8	0.0208815
1093.44	0.0180648
1103.08	0.0158429
1112.72	0.0141857
1122.37	0.0124929
1132.01	0.010995
1141.65	0.00962208
1151.3	0.00814541
1160.94	0.0066789
1170.58	0.00573465
1180.22	0.00463529
1189.86	0.0038618
1199.51	0.0034363
1209.15	0.00286848
1218.79	0.00251528
1228.43	0.00259457
1238.08	0.00234321
1247.72	0.00212199
1257.36	0.00237301
1267	0.00260136
1276.64	0.00224793
1286.29	0.00271663
1295.93	0.00248711
1305.57	0.00274693
1315.21	0.00268804
1324.86	0.00311781
1334.5	0.00314865
1344.14	0.00320666
1353.78	0.00367711
1363.43	0.00383498
1373.07	0.00415335
1382.71	0.00429466
1392.35	0.00466817
1401.99	0.00489563
1411.64	0.00524904
1421.28	0.00581188
1430.92	0.00565237
1440.57	0.00610154
1450.21	0.00598119
1459.85	0.00602157
1469.49	0.00599287
1479.13	0.00647752
1488.78	0.00689386
1498.42	0.00704701
1508.06	0.00786331
1517.7	0.00813354
1527.35	0.008951
1536.99	0.00994114
1546.63	0.0106558
1556.27	0.0114998
1565.91	0.0122874
1575.56	0.0128655
1585.2	0.0135437
1594.84	0.0141686
1604.48	0.0138941
1614.13	0.0131693
1623.77	0.0124305
1633.41	0.0113698
1643.05	0.0103654
1652.7	0.00964316
1662.34	0.00858033
1671.98	0.00778072
1681.62	0.00716044
1691.27	0.00655112
1700.91	0.00605029
1710.55	0.00560429
1720.19	0.00540796
1729.84	0.00503381
1739.48	0.00451498
1749.12	0.00433147
1758.76	0.00490479
1768.4	0.00448383
1778.05	0.00501741
1787.69	0.00515837
1797.33	0.00483668
1806.97	0.00489955
1816.62	0.00486007
1826.26	0.00522728
1835.9	0.00487382
1845.54	0.00537786
1855.18	0.00470638
1864.83	0.00482974
1874.47	0.00499837
1884.11	0.0040129
1893.75	0.00453739
1903.4	0.0037746
1913.04	0.00377904
1922.68	0.00442143
1932.32	0.00333043
1941.97	0.00207825
1951.61	0.00263146
1961.25	0.00207728
1970.89	0.00260632
1980.54	0.00516977
1990.18	0.00234711
1999.82	0.00276655
2009.46	0.0032034
2019.11	0.000762051
2028.75	0.00191594
2038.39	0.00478591
2048.03	0.00520319
2057.67	0.00493934
2067.32	0.00605268
2076.96	0.00542042
2086.6	0.00714849
2096.24	0.0087781
2105.89	0.00837293
2115.53	0.00853279
2125.17	0.00798827
2134.81	0.00759962
2144.45	0.00686917
2154.1	0.00363482
2163.74	0.00779668
2173.38	0.00808908
2183.02	0.00985892
2192.67	0.00878861
2202.31	0.00557854
2211.95	0.00861978
2221.59	0.00882536
2231.24	0.00927618
2240.88	0.00952859
2250.52	0.00794976
2260.16	0.0102547
2269.8	0.0104322
2279.45	0.0105006
2289.09	0.0115307
2298.73	0.0115998
2308.38	0.0109201
2318.02	0.0115929
2327.66	0.0111174
2337.3	0.0114903
2346.94	0.010716
2356.59	0.0112853
2366.23	0.0106024
2375.87	0.0111398
2385.51	0.0106122
2395.16	0.0110504
2404.8	0.0115822
2414.44	0.0113504
2424.08	0.011523
2433.72	0.0130232
2443.37	0.0126453
2453.01	0.0121686
2462.65	0.0130208
2472.29	0.0117863
2481.94	0.0124744
2491.58	0.0115057
2501.22	0.0123706
2510.86	0.0124294
2520.51	0.0126757
2530.15	0.0130456
2539.79	0.0131525
2549.43	0.0127077
2559.07	0.0142957
2568.72	0.0136475
2578.36	0.0149737
2588	0.0147819
2597.64	0.0150307
2607.29	0.0151044
2616.93	0.0152274
2626.57	0.0158601
2636.21	0.015857
2645.86	0.0166723
2655.5	0.01644
2665.14	0.0163597
2674.78	0.0168291
2684.43	0.0168543
2694.07	0.0172726
2703.71	0.0185431
2713.35	0.0190359
2722.99	0.0186599
2732.64	0.0194865
2742.28	0.0195899
2751.92	0.0205725
2761.56	0.0204456
2771.21	0.0208855
2780.85	0.0222579
2790.49	0.023056
2800.13	0.0231722
2809.78	0.0239582
2819.42	0.0255052
2829.06	0.0256355
2838.7	0.0264435
2848.34	0.0265964
2857.99	0.0271376
2867.63	0.0269948
2877.27	0.0280319
2886.91	0.0290066
2896.56	0.0288268
2906.2	0.030158
2915.84	0.0300634
2925.48	0.029089
2935.13	0.0290534
2944.77	0.0308712
2954.41	0.0308627
2964.05	0.0317261
2973.7	0.0311305
2983.34	0.0319006
2992.98	0.0312086
3002.62	0.0323939
3012.26	0.0327847
3021.91	0.0334685
3031.55	0.0335417
3041.19	0.0343174
3050.83	0.033292
3060.48	0.0343896
3070.12	0.0353361
3079.76	0.0366348
3089.4	0.0367278
3099.05	0.0374548
3108.69	0.0370959
3118.33	0.0381564
3127.97	0.0388235
3137.61	0.0380812
3147.26	0.038097
3156.9	0.0393545
3166.54	0.0398609
3176.18	0.0403508
3185.83	0.0403616
3195.47	0.0400013
3205.11	0.0413757
3214.75	0.0417826
3224.4	0.0430302
3234.04	0.0428041
3243.68	0.0422485
3253.32	0.0423216
3262.97	0.042215
3272.61	0.0408072
3282.25	0.0421456
3291.89	0.0407627
3301.53	0.0403555
3311.18	0.0412805
3320.82	0.0403519
3330.46	0.0413806
3340.1	0.0403626
3349.75	0.0390307
3359.39	0.0402373
3369.03	0.04128
3378.67	0.0404551
3388.32	0.040837
3397.96	0.0416714
3407.6	0.0420465
3417.24	0.043313
3426.89	0.0437688
3436.53	0.0440261
3446.17	0.0447926
3455.81	0.0470119
3465.45	0.0478664
3475.1	0.0493625
3484.74	0.0511336
3494.38	0.0520785
3504.02	0.0553677
3513.67	0.0566819
3523.31	0.0620945
3532.95	0.0636279
3542.59	0.0675014
3552.24	0.0671084
3561.88	0.0654892
3571.52	0.0614724
3581.16	0.0528698
3590.8	0.0410157
3600.45	0.0329267
3610.09	0.0264765
3619.73	0.0181351
3629.37	0.013535
3639.02	0.0119092
3648.66	0.00950256
3658.3	0.00942173
3667.94	0.00876098
3677.59	0.00924132
3687.23	0.00664109
3696.87	0.00740296
3706.51	0.00678075
3716.16	0.00742472
3725.8	0.00556303
3735.44	0.00661282
3745.08	0.00380963
3754.72	0.00517702
3764.37	0.00438563
3774.01	0.00589216
3783.65	0.00513266
3793.29	0.00599113
3802.94	0.00339569
3812.58	0.00535301
3822.22	0.00481269
3831.86	0.00484464
3841.51	0.00493861
3851.15	0.0065019
3860.79	0.00684655
3870.43	0.00534698
3880.07	0.00509681
3889.72	0.00540436
3899.36	0.00784612
3909	0.00665093
3918.64	0.00479053
3928.29	0.00507873
3937.93	0.00618788
3947.57	0.00638873
3957.21	0.00707052
3966.86	0.00535728
3976.5	0.00960912
3986.14	0.00542143
3995.78	0.00595917
