Measurement: Infrared, Infrared Data Processed
Mineral: Leightonite
Rruff sample: R050211
Ideal chemistry: K_2_Ca_2_Cu^2+^(S^6+^O_4_)_4_2H_2_O
Locality: Chuquicamata mine, Calama, Antofagasta Province, Chile
Source: John Dagenais
Description: Blue lathlike crystals
Measured chemistry: (K_1.91_Na_0.09_)_Σ=2_Ca_2.00_Cu_1.00_(S_1.00_O_4_)_4_·1.96H_2_O
x	intensity
50.1401	0.0109639
52.0686	0.0115082
53.9971	0.012653
55.9255	0.0165769
57.854	0.0181597
59.7825	0.0190622
61.7109	0.019426
63.6394	0.0208891
65.5679	0.0212723
67.4963	0.0201068
69.4248	0.0200051
71.3533	0.0213414
73.2817	0.0250585
75.2102	0.0277298
77.1387	0.0289796
79.0671	0.0316345
80.9956	0.0323407
82.9241	0.0328651
84.8525	0.0338418
86.781	0.0337815
88.7095	0.0341591
90.6379	0.0346316
92.5664	0.0346409
94.4948	0.0363846
96.4233	0.0387655
98.3518	0.0408658
100.28	0.0396963
102.209	0.0409446
104.137	0.0430703
106.066	0.0434379
107.994	0.0433634
109.923	0.043306
111.851	0.0446448
113.779	0.046199
115.708	0.0463181
117.636	0.04649
119.565	0.0464556
121.493	0.0468456
123.422	0.0453726
125.35	0.044586
127.279	0.0441347
129.207	0.0440074
131.136	0.0436422
133.064	0.0429851
134.993	0.0427886
136.921	0.0436447
138.85	0.0433363
140.778	0.0436405
142.707	0.0446279
144.635	0.0460154
146.563	0.047534
148.492	0.0487952
150.42	0.0501095
152.349	0.051561
154.277	0.0527304
156.206	0.0536794
158.134	0.0544067
160.063	0.0552472
161.991	0.0554159
163.92	0.0548524
165.848	0.0546564
167.777	0.0552002
169.705	0.0560485
171.633	0.0579486
173.562	0.0593069
175.49	0.0599039
177.419	0.0610268
179.347	0.0629233
181.276	0.0639816
183.204	0.0640919
185.133	0.0637173
187.061	0.0629834
188.99	0.0621318
190.918	0.0617619
192.847	0.060858
194.775	0.0598825
196.704	0.0593317
198.632	0.0589627
200.56	0.0587494
202.489	0.0599465
204.417	0.0611979
206.346	0.0624168
208.274	0.0633347
210.203	0.063796
212.131	0.0644053
214.06	0.0653359
215.988	0.0662127
217.917	0.0668038
219.845	0.066871
221.774	0.0670456
223.702	0.0670753
225.631	0.0669487
227.559	0.0667709
229.488	0.0671033
231.416	0.0674843
233.344	0.0678014
235.273	0.0682888
237.201	0.068703
239.13	0.069022
241.058	0.0696415
242.987	0.0704253
244.915	0.0706407
246.844	0.0699615
248.772	0.0694029
250.701	0.0687753
252.629	0.0674909
254.558	0.0658347
256.486	0.064419
258.414	0.0632909
260.343	0.0618688
262.271	0.0609585
264.2	0.06013
266.128	0.0589846
268.057	0.0581995
269.985	0.0573789
271.914	0.0564917
273.842	0.0554467
275.771	0.054199
277.699	0.0531085
279.628	0.0520543
281.556	0.0507566
283.485	0.0498289
285.413	0.0492864
287.341	0.0487603
289.27	0.0488344
291.198	0.0490144
293.127	0.0494056
295.055	0.0499528
296.984	0.0496426
298.912	0.0481475
300.841	0.0460109
302.769	0.0434385
304.698	0.0404573
306.626	0.0377384
308.555	0.0353202
310.483	0.0331277
312.411	0.0312455
314.34	0.0296014
316.269	0.0282684
318.197	0.0272117
320.125	0.0265948
322.054	0.0260459
323.982	0.0254698
325.911	0.0250554
327.839	0.0247256
329.768	0.0245306
331.696	0.0244613
333.625	0.0242746
335.553	0.0241454
337.482	0.0240784
339.41	0.0241072
341.339	0.0241466
343.267	0.0241196
345.195	0.0241427
347.124	0.024206
349.052	0.0240809
350.981	0.0241491
352.909	0.0241555
354.838	0.0240075
356.766	0.0241883
358.695	0.0245984
360.623	0.0246058
362.552	0.0243351
364.48	0.0243005
366.409	0.0245372
368.337	0.0245844
370.265	0.0247317
372.194	0.0249932
374.122	0.0253337
376.051	0.0254581
377.979	0.0253162
379.908	0.0252965
381.836	0.0257456
383.765	0.0261186
385.693	0.0261891
387.622	0.026198
389.55	0.0264081
391.479	0.0265698
393.407	0.0268408
395.336	0.0272008
397.264	0.0276196
399.192	0.0279339
401.121	0.0283124
403.049	0.0288285
404.978	0.0294486
406.906	0.0299058
408.835	0.0303416
410.763	0.0309076
412.692	0.0316861
414.62	0.0323149
416.549	0.0329255
418.477	0.0333555
420.406	0.0338874
422.334	0.0343277
424.262	0.0353245
426.191	0.036415
428.12	0.0374882
430.048	0.0391829
431.976	0.0415903
433.905	0.0442234
435.833	0.0467192
437.762	0.0471094
439.69	0.0455555
441.619	0.0437398
443.547	0.0426504
445.476	0.0420711
447.404	0.0419447
449.333	0.0416994
451.261	0.0416706
453.19	0.0418522
455.118	0.0426935
457.046	0.0438919
458.975	0.0452817
460.903	0.0471282
462.832	0.0494179
464.76	0.0518887
466.689	0.0539989
468.617	0.0548248
470.546	0.0550955
472.474	0.0558375
474.403	0.0569965
476.331	0.0580649
478.26	0.0590176
480.188	0.0595936
482.116	0.0591036
484.045	0.0575631
485.974	0.0563526
487.902	0.0554225
489.83	0.0550268
491.759	0.0554633
493.687	0.0561407
495.616	0.0572541
497.544	0.0588574
499.473	0.060523
501.401	0.0623166
503.33	0.0638769
505.258	0.0650999
507.187	0.0664051
509.115	0.0670658
511.043	0.0673863
512.972	0.0679789
514.9	0.0686636
516.829	0.068997
518.757	0.0691901
520.686	0.0698774
522.614	0.0707128
524.543	0.0717363
526.471	0.0727467
528.4	0.0737329
530.328	0.0749847
532.257	0.0760185
534.185	0.0765785
536.114	0.0772593
538.042	0.0777848
539.971	0.0781474
541.899	0.078784
543.827	0.079266
545.756	0.0792855
547.684	0.0794094
549.613	0.0796756
551.541	0.0801526
553.47	0.0807858
555.398	0.0806668
557.327	0.0799133
559.255	0.0792157
561.184	0.0788633
563.112	0.0786071
565.041	0.0778233
566.969	0.0772345
568.898	0.0769099
570.826	0.0766679
572.755	0.0767649
574.683	0.0773418
576.611	0.0782453
578.54	0.0790575
580.468	0.0804805
582.397	0.0832764
584.325	0.0861653
586.254	0.0897669
588.182	0.0946175
590.111	0.100661
592.039	0.106147
593.968	0.107806
595.896	0.104131
597.824	0.0974914
599.753	0.091234
601.682	0.0867668
603.61	0.0849416
605.538	0.0854927
607.467	0.0864678
609.395	0.0860682
611.324	0.0836415
613.252	0.0813808
615.181	0.0808031
617.109	0.0813618
619.038	0.0820804
620.966	0.083381
622.894	0.0848872
624.823	0.0868979
626.751	0.0884485
628.68	0.0892288
630.608	0.0889163
632.537	0.0881273
634.465	0.0877704
636.394	0.0884931
638.322	0.0896842
640.251	0.0910126
642.179	0.0917947
644.108	0.0911642
646.036	0.0896328
647.965	0.0876672
649.893	0.0834765
651.822	0.0763341
653.75	0.069413
655.678	0.0665662
657.607	0.0667326
659.535	0.0672503
661.464	0.0665797
663.392	0.0634975
665.321	0.0583534
667.249	0.052975
669.178	0.0487876
671.106	0.046638
673.035	0.0461836
674.963	0.04616
676.892	0.0460038
678.82	0.0463298
680.749	0.0468454
682.677	0.0469666
684.606	0.0469327
686.534	0.0474219
688.462	0.0478353
690.391	0.0484008
692.319	0.0500825
694.248	0.0509707
696.176	0.051215
698.105	0.0523142
700.033	0.0510278
