Measurement: Infrared, Infrared Data Processed
Mineral: Liebigite
Rruff sample: R050662
Ideal chemistry: Ca_2_(U^6+^O_2_)(CO_3_)_3_11H_2_O
Locality: Schwartzwaelder mine, Jefferson County, Colorado, USA
Source: University of Arizona Mineral Museum
Description: Yellowish-green flaky aggregate
Measured chemistry: Ca_2.00_(U_1.00_O_2_)(CO_3_)_3_Â·11H_2_O ; C not measured but estimated by stoichiometry
x	intensity
374.123	0.0942094
383.765	0.0953728
393.407	0.108777
403.05	0.111601
412.692	0.117366
422.334	0.122524
431.976	0.127447
441.619	0.130396
451.261	0.13419
460.904	0.138361
470.546	0.140986
480.188	0.141509
489.83	0.142472
499.473	0.142838
509.115	0.1433
518.758	0.143515
528.4	0.141932
538.042	0.140263
547.684	0.138675
557.327	0.136328
566.969	0.134132
576.611	0.133142
586.254	0.130537
595.896	0.127712
605.538	0.125144
615.181	0.121047
624.823	0.117947
634.466	0.114105
644.108	0.110103
653.75	0.106718
663.393	0.104405
673.035	0.101693
682.677	0.0982131
692.319	0.0923873
701.962	0.0888989
711.604	0.0877117
721.246	0.0929726
730.889	0.101972
740.531	0.104647
750.173	0.0884321
759.816	0.0644505
769.458	0.0573716
779.101	0.0566413
788.743	0.0567998
798.385	0.057422
808.028	0.0587191
817.67	0.0646381
827.312	0.0618598
836.955	0.0670584
846.597	0.0744841
856.239	0.07439
865.881	0.0916384
875.524	0.135483
885.166	0.170496
894.808	0.145033
904.451	0.084932
914.093	0.0477223
923.736	0.0330363
933.378	0.025413
943.02	0.0225546
952.663	0.0218017
962.305	0.0223383
971.947	0.0229106
981.59	0.0244717
991.232	0.0254441
1000.87	0.0257978
1010.52	0.0259589
1020.16	0.0266611
1029.8	0.0269271
1039.44	0.0273078
1049.09	0.0280158
1058.73	0.0312048
1068.37	0.0460631
1078.01	0.033409
1087.65	0.0271205
1097.3	0.0252998
1106.94	0.0249735
1116.58	0.0249911
1126.22	0.0254065
1135.87	0.026119
1145.51	0.0266009
1155.15	0.0270794
1164.79	0.0276741
1174.44	0.0284441
1184.08	0.0292937
1193.72	0.0305278
1203.36	0.0316747
1213.01	0.0329034
1222.65	0.0344243
1232.29	0.0360891
1241.93	0.0380162
1251.58	0.0404796
1261.22	0.0432295
1270.86	0.0473382
1280.5	0.0525307
1290.14	0.0592366
1299.79	0.0688107
1309.43	0.0825921
1319.07	0.101429
1328.71	0.127829
1338.36	0.165413
1348	0.202477
1357.64	0.230732
1367.28	0.31427
1376.92	0.366049
1386.57	0.268803
1396.21	0.219724
1405.85	0.209524
1415.49	0.156565
1425.14	0.116174
1434.78	0.0971008
1444.42	0.092321
1454.06	0.0994512
1463.71	0.121218
1473.35	0.159591
1482.99	0.217151
1492.63	0.29965
1502.28	0.371951
1511.92	0.360117
1521.56	0.292252
1531.2	0.255108
1540.85	0.266561
1550.49	0.252264
1560.13	0.194826
1569.77	0.147734
1579.41	0.120725
1589.06	0.096577
1598.7	0.0825207
1608.34	0.0818965
1617.98	0.0960313
1627.63	0.0917737
1637.27	0.0839328
1646.91	0.0742192
1656.55	0.0649233
1666.19	0.052906
1675.84	0.0395019
1685.48	0.0298132
1695.12	0.0233777
1704.77	0.0186043
1714.41	0.0151767
1724.05	0.0129093
1733.69	0.0112971
1743.33	0.00983091
1752.98	0.00958118
1762.62	0.00994857
1772.26	0.00970715
1781.9	0.00977628
1791.55	0.00946335
1801.19	0.00905319
1810.83	0.00961741
1820.47	0.00996257
1830.12	0.01008
1839.76	0.00930705
1849.4	0.00855768
1859.04	0.00834449
1868.68	0.00803572
1878.33	0.00773758
1887.97	0.00782801
1897.61	0.0083232
1907.25	0.00894002
1916.9	0.00829183
1926.54	0.00870542
1936.18	0.00827641
1945.82	0.00806106
1955.46	0.00740166
1965.11	0.00881423
1974.75	0.00864806
1984.39	0.0106439
1994.04	0.0102606
2003.68	0.00935478
2013.32	0.00965098
2022.96	0.0111932
2032.6	0.0110199
2042.25	0.0111301
2051.89	0.0133309
2061.53	0.0127896
2071.17	0.0138457
2080.82	0.0143459
2090.46	0.0142323
2100.1	0.0146548
2109.74	0.0153329
2119.39	0.0153444
2129.03	0.0133624
2138.67	0.0131964
2148.31	0.0142649
2157.95	0.0131687
2167.6	0.0171473
2177.24	0.0153122
2186.88	0.0155897
2196.52	0.0168518
2206.17	0.0155504
2215.81	0.016916
2225.45	0.0177611
2235.09	0.0176527
2244.74	0.0159858
2254.38	0.016668
2264.02	0.0162913
2273.66	0.0169812
2283.3	0.0170676
2292.95	0.0166295
2302.59	0.0168256
2312.23	0.0162587
2321.87	0.0175596
2331.52	0.0161032
2341.16	0.0159081
2350.8	0.0158596
2360.44	0.0156473
2370.09	0.0153302
2379.73	0.0156315
2389.37	0.0161368
2399.01	0.0157917
2408.66	0.0163163
2418.3	0.0167278
2427.94	0.0167668
2437.58	0.0166763
2447.22	0.0170296
2456.87	0.0172848
2466.51	0.0169847
2476.15	0.0165874
2485.79	0.0167241
2495.44	0.0166273
2505.08	0.0165712
2514.72	0.0162057
2524.36	0.0162165
2534.01	0.0166466
2543.65	0.016695
2553.29	0.0173301
2562.93	0.0176995
2572.57	0.01906
2582.22	0.0200954
2591.86	0.0206285
2601.5	0.0207947
2611.14	0.0215868
2620.79	0.0224093
2630.43	0.0223481
2640.07	0.0222674
2649.71	0.021705
2659.36	0.0214391
2669	0.0208807
2678.64	0.0204153
2688.28	0.0207809
2697.93	0.0210055
2707.57	0.0213742
2717.21	0.0220361
2726.85	0.0221045
2736.49	0.0220374
2746.14	0.0225879
2755.78	0.0228426
2765.42	0.0238129
2775.06	0.0245437
2784.71	0.0253446
2794.35	0.0266419
2803.99	0.0273425
2813.63	0.0284874
2823.28	0.0293574
2832.92	0.0309419
2842.56	0.032172
2852.2	0.0329172
2861.84	0.0346228
2871.49	0.0360583
2881.13	0.0375389
2890.77	0.0395601
2900.41	0.040605
2910.06	0.0423376
2919.7	0.0424764
2929.34	0.0447344
2938.98	0.0459248
2948.62	0.0468966
2958.27	0.0483338
2967.91	0.0502577
2977.55	0.0522271
2987.2	0.0538475
2996.84	0.0560066
3006.48	0.0585948
3016.12	0.0598737
3025.76	0.0644016
3035.41	0.067719
3045.05	0.0711255
3054.69	0.0751413
3064.33	0.0785191
3073.98	0.0817041
3083.62	0.0854695
3093.26	0.0892253
3102.9	0.0931204
3112.55	0.098017
3122.19	0.102868
3131.83	0.107268
3141.47	0.112998
3151.11	0.11687
3160.76	0.121705
3170.4	0.126505
3180.04	0.132053
3189.68	0.136615
3199.33	0.140485
3208.97	0.144292
3218.61	0.148476
3228.25	0.150776
3237.9	0.153599
3247.54	0.155863
3257.18	0.157286
3266.82	0.159982
3276.47	0.161024
3286.11	0.164008
3295.75	0.166314
3305.39	0.169682
3315.03	0.173181
3324.68	0.176247
3334.32	0.180139
3343.96	0.183179
3353.6	0.184819
3363.25	0.185019
3372.89	0.186834
3382.53	0.186984
3392.17	0.187239
3401.82	0.186498
3411.46	0.186439
3421.1	0.187759
3430.74	0.187425
3440.39	0.187946
3450.03	0.187581
3459.67	0.185576
3469.31	0.183201
3478.95	0.181792
3488.6	0.179248
3498.24	0.17566
3507.88	0.173103
3517.52	0.167248
3527.17	0.162176
3536.81	0.153859
3546.45	0.145645
3556.09	0.136628
3565.74	0.1272
3575.38	0.116576
3585.02	0.105665
3594.66	0.0944786
3604.3	0.0803181
3613.95	0.0656581
3623.59	0.0517609
3633.23	0.0390944
3642.87	0.0307273
3652.52	0.0234258
3662.16	0.0197239
3671.8	0.017105
3681.44	0.0141517
3691.09	0.0138767
3700.73	0.0141915
3710.37	0.0138186
3720.01	0.0126983
3729.66	0.0126623
3739.3	0.0123927
3748.94	0.0142913
3758.58	0.0137029
3768.22	0.0126067
3777.87	0.0133769
3787.51	0.0124988
3797.15	0.0145293
3806.79	0.0136131
3816.44	0.013641
3826.08	0.0139661
3835.72	0.0142877
3845.36	0.0140659
3855.01	0.0142881
3864.65	0.01538
3874.29	0.0157339
3883.93	0.0155497
3893.57	0.0150125
3903.22	0.0165548
3912.86	0.0159468
3922.5	0.0154578
3932.14	0.0161358
3941.79	0.0162934
3951.43	0.0154777
3961.07	0.015568
3970.71	0.0175741
3980.36	0.0157271
3990	0.0170874
3999.64	0.0175597
