Measurement: Infrared, Infrared Data Processed
Mineral: Ludwigite
Rruff sample: R060010
Ideal chemistry: Mg_2_Fe^3+^O_2_(BO_3_)
Locality: Victoria Quarry, Riverside, California, USA
Source: University of Arizona Mineral Museum
Description: Black elongated prismatic crystals, associated with pale yellow clinohumite on white calcite matrix
Measured chemistry: (Mg_1.68_Fe^2+^_0.32_)_Σ=2_(Fe^3+^_0.74_Al_0.23_Cr_0.03_)_Σ=1_O_5_ ; B not measured but estimated by difference and charge balance
x	intensity
399.193	0.34322
408.835	0.313365
418.477	0.291448
428.12	0.289744
437.762	0.287981
447.404	0.282418
457.047	0.277666
466.689	0.271613
476.331	0.263606
485.974	0.255507
495.616	0.24486
505.258	0.235264
514.901	0.22345
524.543	0.211278
534.185	0.201261
543.828	0.199288
553.47	0.194224
563.112	0.179814
572.755	0.163212
582.397	0.150014
592.039	0.141026
601.682	0.13519
611.324	0.132399
620.966	0.13165
630.609	0.123146
640.251	0.110826
649.893	0.105259
659.536	0.101622
669.178	0.103099
678.82	0.112848
688.463	0.133145
698.105	0.191223
707.747	0.210967
717.39	0.185988
727.032	0.1499
736.674	0.117079
746.317	0.0869837
755.959	0.0618534
765.601	0.0443757
775.244	0.0332279
784.886	0.027094
794.528	0.0266343
804.171	0.025155
813.813	0.0208631
823.455	0.0219697
833.098	0.0236885
842.74	0.0249574
852.382	0.0252557
862.025	0.0257052
871.667	0.0275763
881.309	0.0310931
890.952	0.0267909
900.594	0.0274666
910.236	0.0297854
919.879	0.0344926
929.521	0.0379522
939.163	0.0412423
948.806	0.0453683
958.448	0.0490364
968.09	0.0486711
977.733	0.0527421
987.375	0.0559553
997.017	0.060857
1006.66	0.0677892
1016.3	0.0731481
1025.94	0.0757006
1035.59	0.0813971
1045.23	0.0860111
1054.87	0.0906885
1064.51	0.0950401
1074.16	0.0998085
1083.8	0.106046
1093.44	0.110915
1103.08	0.114935
1112.72	0.12166
1122.37	0.130201
1132.01	0.142688
1141.65	0.163124
1151.3	0.193511
1160.94	0.227914
1170.58	0.271667
1180.22	0.316961
1189.86	0.354533
1199.51	0.389927
1209.15	0.423509
1218.79	0.447777
1228.43	0.458809
1238.08	0.455646
1247.72	0.444163
1257.36	0.424432
1267	0.395537
1276.64	0.354183
1286.29	0.309068
1295.93	0.274863
1305.57	0.253632
1315.21	0.225785
1324.86	0.188274
1334.5	0.1532
1344.14	0.121664
1353.78	0.0915119
1363.43	0.0635034
1373.07	0.0398159
1382.71	0.0260891
1392.35	0.0201922
1401.99	0.0178091
1411.64	0.0177838
1421.28	0.0185724
1430.92	0.0206095
1440.57	0.0238453
1450.21	0.0263435
1459.85	0.0269628
1469.49	0.0245954
1479.13	0.0201242
1488.78	0.0158496
1498.42	0.0117262
1508.06	0.00864077
1517.7	0.00602591
1527.35	0.00428007
1536.99	0.00344414
1546.63	0.00311064
1556.27	0.00293913
1565.91	0.00328842
1575.56	0.00309095
1585.2	0.00369622
1594.84	0.00408538
1604.48	0.00400983
1614.13	0.00411364
1623.77	0.00433817
1633.41	0.00438759
1643.05	0.00421406
1652.7	0.00341678
1662.34	0.00302994
1671.98	0.0026649
1681.62	0.00193734
1691.27	0.00186439
1700.91	0.00120509
1710.55	0.00151966
1720.19	0.00186903
1729.84	0.00182595
1739.48	0.00161913
1749.12	0.00119648
1758.76	0.00168862
1768.4	0.00149839
1778.05	0.00141502
1787.69	0.00162511
1797.33	0.00134103
1806.97	0.00142474
1816.62	0.0010035
1826.26	0.00146879
1835.9	0.00137636
1845.54	0.00098865
1855.18	0.00146595
1864.83	0.00145891
1874.47	0.00162036
1884.11	0.00131996
1893.75	0.00144027
1903.4	0.00121419
1913.04	0.000901929
1922.68	0.000792514
1932.32	0.000554264
1941.97	-0.000529568
1951.61	-0.000512482
1961.25	-0.00163423
1970.89	0.0003177
1980.54	0.00027187
1990.18	0.0010382
1999.82	0.00099952
2009.46	0.00032929
2019.11	0.000164527
2028.75	0.00128213
2038.39	0.00066749
2048.03	0.000545862
2057.67	0.000533127
2067.32	0.000480793
2076.96	0.000280639
2086.6	0.000308972
2096.24	-0.000281138
2105.89	-2.15945e-06
2115.53	0.000430807
2125.17	0.000967002
2134.81	-9.43723e-05
2144.45	0.00356452
2154.1	0.00144316
2163.74	0.000956245
2173.38	-0.000331634
2183.02	0.000305217
2192.67	0.000363107
2202.31	0.000758322
2211.95	0.0015014
2221.59	0.000834918
2231.24	0.00124742
2240.88	-0.000306991
2250.52	0.000839123
2260.16	-0.000387587
2269.8	0.00134056
2279.45	0.000572194
2289.09	0.00199283
2298.73	0.00146968
2308.38	0.00139821
2318.02	0.00205189
2327.66	0.00153253
2337.3	0.000908438
2346.94	0.00110764
2356.59	0.00132795
2366.23	0.000628716
2375.87	0.000690778
2385.51	-0.000108283
2395.16	-0.000423467
2404.8	-7.37603e-05
2414.44	0.00084336
2424.08	0.000150462
2433.72	0.00018746
2443.37	0.000657322
2453.01	0.000941151
2462.65	0.00142528
2472.29	0.00165771
2481.94	0.00202997
2491.58	0.00177605
2501.22	0.00180838
2510.86	0.00121769
2520.51	0.00151206
2530.15	0.00108413
2539.79	0.000691781
2549.43	0.000626922
2559.07	0.000611521
2568.72	0.000462031
2578.36	0.000630599
2588	0.000399458
2597.64	0.000794888
2607.29	0.000811085
2616.93	0.00130304
2626.57	0.00140037
2636.21	0.00228947
2645.86	0.0026812
2655.5	0.00248629
2665.14	0.00259532
2674.78	0.00204277
2684.43	0.00269734
2694.07	0.00246432
2703.71	0.00357246
2713.35	0.00358802
2722.99	0.00433609
2732.64	0.00401636
2742.28	0.00438198
2751.92	0.00472715
2761.56	0.00516837
2771.21	0.00513889
2780.85	0.00558473
2790.49	0.00570681
2800.13	0.00557052
2809.78	0.00596035
2819.42	0.00615822
2829.06	0.00663045
2838.7	0.0074069
2848.34	0.0091341
2857.99	0.00896942
2867.63	0.00791216
2877.27	0.00817716
2886.91	0.00867401
2896.56	0.0100492
2906.2	0.0113018
2915.84	0.0134022
2925.48	0.014118
2935.13	0.0120427
2944.77	0.0103108
2954.41	0.0107494
2964.05	0.0106123
2973.7	0.00745567
2983.34	0.00839843
2992.98	0.00774364
3002.62	0.00849309
3012.26	0.00924757
3021.91	0.00973175
3031.55	0.0101484
3041.19	0.011101
3050.83	0.0120696
3060.48	0.0127279
3070.12	0.0133102
3079.76	0.0136901
3089.4	0.0149471
3099.05	0.015743
3108.69	0.0164582
3118.33	0.0166617
3127.97	0.0185374
3137.61	0.0186034
3147.26	0.0189598
3156.9	0.020799
3166.54	0.0218696
3176.18	0.021309
3185.83	0.0224264
3195.47	0.0243468
3205.11	0.0245204
3214.75	0.0258207
3224.4	0.0267825
3234.04	0.0270781
3243.68	0.0267686
3253.32	0.029105
3262.97	0.03065
3272.61	0.030835
3282.25	0.032233
3291.89	0.0330649
3301.53	0.0335681
3311.18	0.0340799
3320.82	0.0361892
3330.46	0.0365594
3340.1	0.0378899
3349.75	0.0379975
3359.39	0.0379448
3369.03	0.0387279
3378.67	0.0403997
3388.32	0.0400645
3397.96	0.0407208
3407.6	0.0416581
3417.24	0.0404448
3426.89	0.0424033
3436.53	0.0423691
3446.17	0.0412718
3455.81	0.0409619
3465.45	0.0405763
3475.1	0.0406487
3484.74	0.0384884
3494.38	0.0376403
3504.02	0.0357815
3513.67	0.0339877
3523.31	0.0333652
3532.95	0.0326107
3542.59	0.0323745
3552.24	0.0326137
3561.88	0.0335645
3571.52	0.0267136
3581.16	0.0201219
3590.8	0.0195762
3600.45	0.0190598
3610.09	0.0160842
3619.73	0.0145381
3629.38	0.0127213
3639.02	0.0114736
3648.66	0.00986231
3658.3	0.00867901
3667.94	0.00948793
3677.59	0.00559626
3687.23	0.00599267
3696.87	0.00451674
3706.51	0.00531901
3716.16	0.00386962
3725.8	0.00314512
3735.44	0.0022095
3745.08	0.00157482
3754.72	0.00196737
3764.37	0.00202902
3774.01	0.000123673
3783.65	0.00102596
3793.29	0.000711149
3802.94	0.00275558
3812.58	0.00142813
3822.22	0.00222748
3831.86	0.00174975
3841.51	0.00215687
3851.15	0.00151844
3860.79	0.000574964
3870.43	4.72455e-05
3880.07	0.00160512
3889.72	0.00206015
3899.36	0.00019711
3909	0.00207192
3918.64	0.00324293
3928.29	-4.2662e-05
3937.93	-0.00182464
3947.57	-0.00120092
3957.21	-0.00112371
3966.86	-0.00140487
3976.5	-0.000837028
3986.14	-2.85595e-05
3995.78	-0.0007007
