Measurement: Infrared, Infrared Data Processed
Mineral: Marialite
Rruff sample: R040043
Ideal chemistry: Na_4_Al_3_Si_9_O_24_Cl
Locality: Gouverneur, New York, USA
Source: University of Arizona Mineral Museum
Description: White prismatic crystals, associated with calcite
Measured chemistry: (Na_.493_Ca_.446_K_.061_)_4_(Si_.634_Al_.366_)_12_O_24_((CO_3_)_.581_Cl_.419_)
x	intensity
399.193	0
408.835	0.0806874
418.477	0.0769166
428.12	0.0782273
437.762	0.0688359
447.404	0.086581
457.047	0.0932116
466.689	0.0775415
476.331	0.0458293
485.974	0.0281936
495.616	0.0274373
505.258	0.0259407
514.901	0.0352123
524.543	0.0522948
534.185	0.0719781
543.828	0.0824037
553.47	0.0662663
563.112	0.0425463
572.755	0.0273503
582.397	0.022294
592.039	0.0188046
601.682	0.0223083
611.324	0.0399822
620.966	0.0593059
630.609	0.0269055
640.251	0.0172138
649.893	0.0146289
659.536	0.0145656
669.178	0.0177046
678.82	0.0243141
688.463	0.0317413
698.105	0.0354833
707.747	0.0406913
717.39	0.034137
727.032	0.0251736
736.674	0.0253165
746.317	0.030483
755.959	0.0354695
765.601	0.0217135
775.244	0.0161496
784.886	0.0136212
794.528	0.0135655
804.171	0.0145446
813.813	0.015897
823.455	0.0186748
833.098	0.021418
842.74	0.0279562
852.382	0.0374384
862.025	0.0536758
871.667	0.136603
881.309	0.0959507
890.952	0.0381244
900.594	0.0446133
910.236	0.0527921
919.879	0.0627514
929.521	0.0744633
939.163	0.0866327
948.806	0.096105
958.448	0.101239
968.09	0.106546
977.733	0.114052
987.375	0.119786
997.017	0.122554
1006.66	0.124012
1016.3	0.125502
1025.94	0.124448
1035.59	0.117062
1045.23	0.0982511
1054.87	0.0813459
1064.51	0.0735991
1074.16	0.0706252
1083.8	0.070007
1093.44	0.0710428
1103.08	0.0715702
1112.72	0.0696915
1122.37	0.064009
1132.01	0.0529893
1141.65	0.0401708
1151.3	0.0331056
1160.94	0.0383516
1170.58	0.0513237
1180.22	0.065195
1189.86	0.0645225
1199.51	0.0533072
1209.15	0.0440194
1218.79	0.035188
1228.43	0.0282887
1238.08	0.0264151
1247.72	0.0267889
1257.36	0.0273379
1267	0.0290673
1276.64	0.0313682
1286.29	0.0336795
1295.93	0.037402
1305.57	0.0415969
1315.21	0.0469231
1324.86	0.0522266
1334.5	0.0597987
1344.14	0.0698733
1353.78	0.0823411
1363.43	0.0996333
1373.07	0.122374
1382.71	0.153401
1392.35	0.196562
1401.99	0.227522
1411.64	0.244672
1421.28	0.236555
1430.92	0.22086
1440.57	0.203517
1450.21	0.186991
1459.85	0.168577
1469.49	0.150297
1479.13	0.131879
1488.78	0.114075
1498.42	0.0967534
1508.06	0.0800155
1517.7	0.0651348
1527.35	0.0536777
1536.99	0.0401723
1546.63	0.0256388
1556.27	0.0167703
1565.91	0.0130925
1575.56	0.0106546
1585.2	0.00969368
1594.84	0.00771669
1604.48	0.00619838
1614.13	0.00517051
1623.77	0.00443659
1633.41	0.00424204
1643.05	0.00341037
1652.7	0.00263496
1662.34	0.00293495
1671.98	0.00262173
1681.62	0.0023054
1691.27	0.00217998
1700.91	0.00211593
1710.55	0.00233495
1720.19	0.0019588
1729.84	0.00175482
1739.48	0.00156421
1749.12	0.000723425
1758.76	0.000841301
1768.4	0.00148921
1778.05	0.00156687
1787.69	0.00370409
1797.33	0.00691736
1806.97	0.00210782
1816.62	0.00057592
1826.26	0.000578237
1835.9	0.000427502
1845.54	-0.000161641
1855.18	0.000171008
1864.83	-0.000112922
1874.47	-0.000277668
1884.11	-0.00100542
1893.75	-0.000996757
1903.4	-0.000902234
1913.04	-0.00241157
1922.68	-0.00133744
1932.32	-0.00305771
1941.97	-0.00331401
1951.61	-0.00386251
1961.25	-0.00390966
1970.89	-0.00476161
1980.54	-0.00212088
1990.18	-0.00493847
1999.82	-0.00528741
2009.46	-0.00524115
2019.11	-0.00447596
2028.75	-0.0032915
2038.39	-0.00422029
2048.03	-0.00123334
2057.67	-0.00138147
2067.32	-0.00269111
2076.96	-0.000566505
2086.6	-0.00213938
2096.24	-0.00157335
2105.89	0.000358176
2115.53	-0.000987426
2125.17	-0.00134034
2134.81	-0.00422953
2144.45	-0.000550717
2154.1	-0.0048755
2163.74	-0.00265621
2173.38	0.000717528
2183.02	-0.00178652
2192.67	0.000117531
2202.31	0.00158062
2211.95	-0.00153852
2221.59	0.00162644
2231.24	0.00204734
2240.88	0.00152039
2250.52	0.00133122
2260.16	0.00289082
2269.8	0.00174884
2279.45	0.0027214
2289.09	0.00313559
2298.73	0.00304851
2308.38	0.0041741
2318.02	0.00487589
2327.66	0.00293439
2337.3	0.00300614
2346.94	0.00371296
2356.59	0.00248988
2366.23	0.00174049
2375.87	0.0014727
2385.51	0.00115857
2395.16	0.00177524
2404.8	0.00214639
2414.44	0.00280453
2424.08	0.00239676
2433.72	0.00237012
2443.37	0.00290875
2453.01	0.00402462
2462.65	0.00382497
2472.29	0.00372793
2481.94	0.00404929
2491.58	0.00467296
2501.22	0.00709479
2510.86	0.00700569
2520.51	0.00621148
2530.15	0.00617527
2539.79	0.00447481
2549.43	0.0048258
2559.07	0.00405608
2568.72	0.00428885
2578.36	0.00409928
2588	0.00430449
2597.64	0.0036931
2607.29	0.00485717
2616.93	0.00429238
2626.57	0.00330214
2636.21	0.00344217
2645.86	0.00373688
2655.5	0.0034945
2665.14	0.00307795
2674.78	0.0016797
2684.43	0.0021386
2694.07	0.00182108
2703.71	0.00229489
2713.35	0.00124479
2722.99	0.00181483
2732.64	0.00132199
2742.28	0.00142947
2751.92	0.00160714
2761.56	0.00140482
2771.21	0.00131365
2780.85	0.000218221
2790.49	-6.18422e-05
2800.13	8.9708e-05
2809.78	-0.00119041
2819.42	-0.000521125
2829.06	2.84441e-05
2838.7	0.000596631
2848.34	0.000849206
2857.99	0.000853711
2867.63	0.00178914
2877.27	0.00208589
2886.91	0.00106304
2896.56	0.00100873
2906.2	0.00245145
2915.84	0.002193
2925.48	0.00323889
2935.13	0.00233624
2944.77	0.00208586
2954.41	0.00274798
2964.05	0.00361534
2973.7	0.0019967
2983.34	0.00376031
2992.98	0.00270845
3002.62	0.00232605
3012.26	0.00227696
3021.91	0.00252882
3031.55	0.00380673
3041.19	0.00185146
3050.83	0.00225407
3060.48	0.00416848
3070.12	0.00480853
3079.76	0.00356198
3089.4	0.00510469
3099.05	0.00402501
3108.69	0.00548548
3118.33	0.00431385
3127.97	0.00438328
3137.61	0.00440393
3147.26	0.00406626
3156.9	0.00449599
3166.54	0.0044926
3176.18	0.00500787
3185.83	0.00499123
3195.47	0.00689793
3205.11	0.00490741
3214.75	0.00526376
3224.4	0.00430953
3234.04	0.00564764
3243.68	0.00414587
3253.32	0.00512443
3262.97	0.00587227
3272.61	0.00564185
3282.25	0.00516123
3291.89	0.00487856
3301.53	0.00493555
3311.18	0.00559785
3320.82	0.00650775
3330.46	0.00548276
3340.1	0.00569597
3349.75	0.00532055
3359.39	0.00518264
3369.03	0.00597865
3378.67	0.00681526
3388.32	0.0057148
3397.96	0.00658136
3407.6	0.00642098
3417.24	0.00650208
3426.89	0.00754889
3436.53	0.00737583
3446.17	0.00719888
3455.81	0.0071748
3465.45	0.00819416
3475.1	0.00762517
3484.74	0.00653332
3494.38	0.00452811
3504.02	0.00511988
3513.67	0.00521281
3523.31	0.00503002
3532.95	0.0049855
3542.59	0.00394741
3552.24	0.00697273
3561.88	0.0058499
3571.52	0.00685575
3581.16	0.00458723
3590.8	0.00895124
3600.45	0.00538523
3610.09	0.00865247
3619.73	0.00663916
3629.37	0.00624053
3639.02	0.00826878
3648.66	0.0095212
3658.3	0.00632482
3667.94	0.00417202
3677.59	0.00613673
3687.23	0.00301784
3696.87	0.00636544
3706.51	0.00602495
3716.16	0.00856121
3725.8	0.00639551
3735.44	0.00462513
3745.08	0.00599387
3754.72	0.00640521
3764.37	0.00806648
3774.01	0.00625526
3783.65	0.00970845
3793.29	0.00511188
3802.94	0.00752032
3812.58	0.00930444
3822.22	0.0079265
3831.86	0.00696971
3841.51	0.00483606
3851.15	0.00715299
3860.79	0.0072326
3870.43	0.00616082
3880.07	0.00593298
3889.72	0.00749336
3899.36	0.00529467
3909	0.00576751
3918.64	0.00763365
3928.29	0.00674275
3937.93	0.00746712
3947.57	0.00633378
3957.21	0.00907964
3966.86	0.00649182
3976.5	0.00553031
3986.14	0.00973787
3995.78	0.00885514
