Measurement: Infrared, Infrared Data Processed
Mineral: Meyerhofferite
Rruff sample: R050671
Ideal chemistry: CaB_3_O_3_(OH)_5_H_2_O
Locality: Inyo County, California, USA
Source: University of Arizona Mineral Museum
Description: Colorless prismatic single crystals
Measured chemistry: Ca_1.00_B_3_O_3_(OH)_5_Â·H_2_O ; B not measured but estimated by charge balance
x	intensity
399.193	0.102804
408.835	0.0567953
418.477	0.0631947
428.12	0.0913886
437.762	0.0733204
447.404	0.0709659
457.047	0.101166
466.689	0.182864
476.331	0.115029
485.974	0.125975
495.616	0.156989
505.258	0.128707
514.901	0.16456
524.543	0.218056
534.185	0.151138
543.828	0.12485
553.47	0.138207
563.112	0.177522
572.755	0.222395
582.397	0.200786
592.039	0.168986
601.682	0.178579
611.324	0.230083
620.966	0.22409
630.609	0.19727
640.251	0.21999
649.893	0.271245
659.536	0.305304
669.178	0.311077
678.82	0.279582
688.463	0.19259
698.105	0.154003
707.747	0.154692
717.39	0.199886
727.032	0.22274
736.674	0.153857
746.317	0.133024
755.959	0.125765
765.601	0.129885
775.244	0.1579
784.886	0.226132
794.528	0.294407
804.171	0.279101
813.813	0.253991
823.455	0.239738
833.098	0.252333
842.74	0.239512
852.382	0.182094
862.025	0.153766
871.667	0.169335
881.309	0.222641
890.952	0.256551
900.594	0.269199
910.236	0.263496
919.879	0.227774
929.521	0.258255
939.163	0.386564
948.806	0.423574
958.448	0.469798
968.09	0.457251
977.733	0.364521
987.375	0.301804
997.017	0.284667
1006.66	0.355197
1016.3	0.417609
1025.94	0.393524
1035.59	0.346981
1045.23	0.315815
1054.87	0.29342
1064.51	0.313138
1074.16	0.370736
1083.8	0.389034
1093.44	0.34119
1103.08	0.284649
1112.72	0.252301
1122.37	0.241999
1132.01	0.233701
1141.65	0.224977
1151.3	0.203652
1160.94	0.16899
1170.58	0.141186
1180.22	0.129758
1189.86	0.125472
1199.51	0.109796
1209.15	0.0920639
1218.79	0.075673
1228.43	0.0587823
1238.08	0.0470598
1247.72	0.0405083
1257.36	0.0377377
1267	0.0372234
1276.64	0.0384383
1286.29	0.0410606
1295.93	0.0457404
1305.57	0.0542429
1315.21	0.0690705
1324.86	0.0948245
1334.5	0.143913
1344.14	0.22664
1353.78	0.293252
1363.43	0.272594
1373.07	0.213296
1382.71	0.208454
1392.35	0.268955
1401.99	0.266403
1411.64	0.200403
1421.28	0.120902
1430.92	0.0818863
1440.57	0.107213
1450.21	0.0935138
1459.85	0.0536761
1469.49	0.0355829
1479.13	0.0296747
1488.78	0.0266805
1498.42	0.0244448
1508.06	0.02238
1517.7	0.0210367
1527.35	0.0199445
1536.99	0.0186322
1546.63	0.0179196
1556.27	0.0167038
1565.91	0.0163956
1575.56	0.0153687
1585.2	0.0156384
1594.84	0.0152504
1604.48	0.0149827
1614.13	0.0146097
1623.77	0.01441
1633.41	0.0141867
1643.05	0.0140534
1652.7	0.0125931
1662.34	0.0133383
1671.98	0.0133668
1681.62	0.0134202
1691.27	0.0131521
1700.91	0.0118977
1710.55	0.01222
1720.19	0.011145
1729.84	0.0102319
1739.48	0.0089669
1749.12	0.00848634
1758.76	0.00863121
1768.4	0.00823418
1778.05	0.00800844
1787.69	0.00783259
1797.33	0.00756647
1806.97	0.00728984
1816.62	0.00674456
1826.26	0.00705444
1835.9	0.00679922
1845.54	0.00635471
1855.18	0.00643334
1864.83	0.00565964
1874.47	0.00525117
1884.11	0.00502702
1893.75	0.00500652
1903.4	0.00447863
1913.04	0.00471742
1922.68	0.00470423
1932.32	0.00436946
1941.97	0.00339179
1951.61	0.00330245
1961.25	0.00484598
1970.89	0.0043139
1980.54	0.00742494
1990.18	0.00540973
1999.82	0.00651923
2009.46	0.00527518
2019.11	0.0045671
2028.75	0.00602069
2038.39	0.00724503
2048.03	0.00821128
2057.67	0.00775026
2067.32	0.00726158
2076.96	0.00803019
2086.6	0.00810802
2096.24	0.00823088
2105.89	0.00894728
2115.53	0.00814692
2125.17	0.0073661
2134.81	0.00599932
2144.45	0.00585102
2154.1	0.00510439
2163.74	0.00994745
2173.38	0.008547
2183.02	0.0102966
2192.67	0.00931775
2202.31	0.0105383
2211.95	0.0110694
2221.59	0.0111673
2231.24	0.0115135
2240.88	0.0112597
2250.52	0.0108074
2260.16	0.0104837
2269.8	0.0111981
2279.45	0.0115136
2289.09	0.0115177
2298.73	0.0107968
2308.38	0.0108831
2318.02	0.0118535
2327.66	0.0105725
2337.3	0.0100151
2346.94	0.0106619
2356.59	0.0101503
2366.23	0.0100693
2375.87	0.0105357
2385.51	0.0112713
2395.16	0.0112926
2404.8	0.0114116
2414.44	0.0118928
2424.08	0.0120014
2433.72	0.0113213
2443.37	0.011576
2453.01	0.0113566
2462.65	0.0114289
2472.29	0.0109799
2481.94	0.0108613
2491.58	0.0113014
2501.22	0.0107188
2510.86	0.0108214
2520.51	0.0106041
2530.15	0.0112068
2539.79	0.0108752
2549.43	0.0107695
2559.07	0.0109089
2568.72	0.0116505
2578.36	0.0116751
2588	0.0118545
2597.64	0.0115345
2607.29	0.0122785
2616.93	0.0125242
2626.57	0.0126504
2636.21	0.0130829
2645.86	0.0131208
2655.5	0.0127961
2665.14	0.0122733
2674.78	0.0125033
2684.43	0.0129032
2694.07	0.0123796
2703.71	0.0132868
2713.35	0.0139069
2722.99	0.0147011
2732.64	0.0156907
2742.28	0.0167991
2751.92	0.0182514
2761.56	0.019293
2771.21	0.0199932
2780.85	0.020763
2790.49	0.0220517
2800.13	0.0226871
2809.78	0.02363
2819.42	0.0256725
2829.06	0.0271552
2838.7	0.0285124
2848.34	0.0283395
2857.99	0.0298411
2867.63	0.0312266
2877.27	0.032245
2886.91	0.0334204
2896.56	0.0340421
2906.2	0.0364403
2915.84	0.0372787
2925.48	0.0409682
2935.13	0.0443526
2944.77	0.0479931
2954.41	0.0525752
2964.05	0.057161
2973.7	0.0625695
2983.34	0.0694648
2992.98	0.0783382
3002.62	0.0885351
3012.26	0.101533
3021.91	0.114179
3031.55	0.121997
3041.19	0.121963
3050.83	0.114827
3060.48	0.105729
3070.12	0.0972103
3079.76	0.091708
3089.4	0.0878696
3099.05	0.0851082
3108.69	0.0841956
3118.33	0.0835103
3127.97	0.0838577
3137.61	0.0836824
3147.26	0.0855296
3156.9	0.0873812
3166.54	0.089399
3176.18	0.0926294
3185.83	0.095823
3195.47	0.0992566
3205.11	0.104374
3214.75	0.108205
3224.4	0.114216
3234.04	0.12038
3243.68	0.125427
3253.32	0.133121
3262.97	0.142084
3272.61	0.153934
3282.25	0.165133
3291.89	0.173498
3301.53	0.176924
3311.18	0.175893
3320.82	0.173117
3330.46	0.171354
3340.1	0.172569
3349.75	0.17679
3359.39	0.185458
3369.03	0.198888
3378.67	0.221888
3388.32	0.253443
3397.96	0.27944
3407.6	0.318429
3417.24	0.358647
3426.89	0.375063
3436.53	0.37032
3446.17	0.318299
3455.81	0.253652
3465.45	0.218735
3475.1	0.21322
3484.74	0.212814
3494.38	0.164828
3504.02	0.116184
3513.67	0.0876116
3523.31	0.0696052
3532.95	0.0588407
3542.59	0.0501839
3552.24	0.0436251
3561.88	0.0380897
3571.52	0.0349746
3581.16	0.0335324
3590.8	0.0424918
3600.45	0.132583
3610.09	0.0802194
3619.73	0.0207926
3629.37	0.0111281
3639.02	0.00908874
3648.66	0.00569584
3658.3	0.00438428
3667.94	0.00471846
3677.59	0.00270419
3687.23	0.00205977
3696.87	0.00301388
3706.51	0.00285025
3716.16	0.00326306
3725.8	0.00311707
3735.44	0.00241029
3745.08	0.000548959
3754.72	0.00357113
3764.37	0.00353175
3774.01	0.00374089
3783.65	0.00403844
3793.29	0.00441504
3802.94	0.00253105
3812.58	0.00364159
3822.22	0.00300973
3831.86	0.00362787
3841.51	0.00406862
3851.15	0.0027854
3860.79	0.00383836
3870.43	0.00364044
3880.07	0.00407301
3889.72	0.00353632
3899.36	0.00450289
3909	0.00421262
3918.64	0.00467006
3928.29	0.0050896
3937.93	0.0048239
3947.57	0.00545208
3957.21	0.005517
3966.86	0.0055649
3976.5	0.00591771
3986.14	0.00579245
3995.78	0.006414
