Measurement: Infrared, Infrared Data Processed
Mineral: Nitratine
Rruff sample: R050394
Ideal chemistry: NaN^5+^O_3_
Locality: Tarapaca, Chile
Source: Mark Candee
Description: Colorless coarse powder
Measured chemistry: Na_1.00_NO_3_ ; = darker grains. The lighter grains are NaCl ; N not analyzed but estimated by difference and stiochiometry
x	intensity
399.193	0.00521804
408.835	0.00485476
418.477	0.00924341
428.12	0.00603272
437.762	0.00936021
447.404	0.00800205
457.047	0.00759247
466.689	0.00950051
476.331	0.00846039
485.974	0.00876367
495.616	0.00848435
505.258	0.0098925
514.901	0.00912884
524.543	0.0088258
534.185	0.0106909
543.828	0.0101007
553.47	0.0116542
563.112	0.0108512
572.755	0.0107182
582.397	0.0120216
592.039	0.0134086
601.682	0.0149703
611.324	0.0178609
620.966	0.0191382
630.609	0.0174184
640.251	0.01469
649.893	0.0138878
659.536	0.0156273
669.178	0.0152657
678.82	0.0165823
688.463	0.0159309
698.105	0.0156288
707.747	0.0161316
717.39	0.0170609
727.032	0.0199902
736.674	0.0190178
746.317	0.0197065
755.959	0.0205781
765.601	0.0212796
775.244	0.021363
784.886	0.022122
794.528	0.0228098
804.171	0.0251468
813.813	0.0254185
823.455	0.0319773
833.098	0.0925455
842.74	0.0231947
852.382	0.0221212
862.025	0.0223161
871.667	0.0227696
881.309	0.018161
890.952	0.0209151
900.594	0.0215157
910.236	0.0231853
919.879	0.025372
929.521	0.0269416
939.163	0.0267646
948.806	0.0271605
958.448	0.0286174
968.09	0.0301463
977.733	0.0330076
987.375	0.0361656
997.017	0.0372995
1006.66	0.0380011
1016.3	0.0389522
1025.94	0.0410475
1035.59	0.0416856
1045.23	0.0395461
1054.87	0.0458722
1064.51	0.0532495
1074.16	0.0612647
1083.8	0.067636
1093.44	0.0694143
1103.08	0.0751513
1112.72	0.079471
1122.37	0.0802401
1132.01	0.080998
1141.65	0.0868163
1151.3	0.0919486
1160.94	0.0948255
1170.58	0.0986241
1180.22	0.102428
1189.86	0.106125
1199.51	0.109941
1209.15	0.111567
1218.79	0.113418
1228.43	0.116203
1238.08	0.12058
1247.72	0.125511
1257.36	0.131096
1267	0.137723
1276.64	0.14522
1286.29	0.153468
1295.93	0.16199
1305.57	0.172511
1315.21	0.183883
1324.86	0.193833
1334.5	0.200007
1344.14	0.202931
1353.78	0.18561
1363.43	0.155062
1373.07	0.134212
1382.71	0.11671
1392.35	0.107557
1401.99	0.0996194
1411.64	0.0866735
1421.28	0.0757371
1430.92	0.0682988
1440.57	0.0587035
1450.21	0.053229
1459.85	0.035837
1469.49	0.017509
1479.13	0.0136796
1488.78	0.0124788
1498.42	0.0119398
1508.06	0.0112136
1517.7	0.0108287
1527.35	0.0105672
1536.99	0.0100736
1546.63	0.0107286
1556.27	0.0109667
1565.91	0.0107477
1575.56	0.0107071
1585.2	0.0109006
1594.84	0.0113086
1604.48	0.0110292
1614.13	0.0112993
1623.77	0.0120247
1633.41	0.0117836
1643.05	0.0125165
1652.7	0.0116045
1662.34	0.0107053
1671.98	0.0103118
1681.62	0.0101763
1691.27	0.00919324
1700.91	0.00986104
1710.55	0.0102212
1720.19	0.0104188
1729.84	0.0101785
1739.48	0.0118342
1749.12	0.0106437
1758.76	0.00844085
1768.4	0.00782581
1778.05	0.00881551
1787.69	0.0279523
1797.33	0.00805503
1806.97	0.00715964
1816.62	0.00696608
1826.26	0.00666712
1835.9	0.00662816
1845.54	0.00684452
1855.18	0.00674979
1864.83	0.00807114
1874.47	0.00751991
1884.11	0.00723625
1893.75	0.00824755
1903.4	0.00761852
1913.04	0.00717924
1922.68	0.00638805
1932.32	0.00858615
1941.97	0.00674907
1951.61	0.00867922
1961.25	0.00914376
1970.89	0.00625012
1980.54	0.00958782
1990.18	0.00791429
1999.82	0.00624748
2009.46	0.00704842
2019.11	0.00602226
2028.75	0.00839349
2038.39	0.00907122
2048.03	0.00797926
2057.67	0.00863818
2067.32	0.0093273
2076.96	0.009191
2086.6	0.00956857
2096.24	0.0101553
2105.89	0.0077007
2115.53	0.00940289
2125.17	0.00852438
2134.81	0.0063735
2144.45	0.00483085
2154.1	0.00272188
2163.74	0.00744474
2173.38	0.00747581
2183.02	0.00800327
2192.67	0.00554872
2202.31	0.0061848
2211.95	0.00708515
2221.59	0.00591702
2231.24	0.00962272
2240.88	0.00915151
2250.52	0.0084146
2260.16	0.0080291
2269.8	0.00946416
2279.45	0.00992913
2289.09	0.00967791
2298.73	0.00921072
2308.38	0.0112122
2318.02	0.0101211
2327.66	0.0102013
2337.3	0.0104403
2346.94	0.00972731
2356.59	0.00999039
2366.23	0.00923511
2375.87	0.00910809
2385.51	0.00914976
2395.16	0.00977186
2404.8	0.0101072
2414.44	0.0131979
2424.08	0.021975
2433.72	0.0248856
2443.37	0.023111
2453.01	0.0192966
2462.65	0.0153709
2472.29	0.0146167
2481.94	0.0131328
2491.58	0.0130441
2501.22	0.012624
2510.86	0.0100664
2520.51	0.00925476
2530.15	0.00730471
2539.79	0.00653203
2549.43	0.00638239
2559.07	0.00642333
2568.72	0.00747647
2578.36	0.00641992
2588	0.00805241
2597.64	0.00646872
2607.29	0.00738297
2616.93	0.00761976
2626.57	0.00776077
2636.21	0.00758842
2645.86	0.00776347
2655.5	0.00830487
2665.14	0.00751542
2674.78	0.00780088
2684.43	0.00716826
2694.07	0.00743366
2703.71	0.00768237
2713.35	0.0074403
2722.99	0.00769294
2732.64	0.0104835
2742.28	0.0112286
2751.92	0.0115962
2761.56	0.0126632
2771.21	0.0127804
2780.85	0.0110765
2790.49	0.0110407
2800.13	0.0102095
2809.78	0.00979128
2819.42	0.0117105
2829.06	0.0102635
2838.7	0.0109385
2848.34	0.0137748
2857.99	0.0111718
2867.63	0.00693177
2877.27	0.00439561
2886.91	0.00678821
2896.56	0.00704594
2906.2	0.00968444
2915.84	0.0107406
2925.48	0.00867264
2935.13	0.00908408
2944.77	0.00758169
2954.41	0.00922331
2964.05	0.00248415
2973.7	-0.00175119
2983.34	0.00514983
2992.98	0.00920746
3002.62	0.00950696
3012.26	0.0104799
3021.91	0.010866
3031.55	0.0132421
3041.19	0.0132928
3050.83	0.013451
3060.48	0.0150506
3070.12	0.0174135
3079.76	0.015062
3089.4	0.0137827
3099.05	0.0144674
3108.69	0.0148223
3118.33	0.0152103
3127.97	0.0152133
3137.61	0.0158996
3147.26	0.0157525
3156.9	0.016158
3166.54	0.0146803
3176.18	0.0169991
3185.83	0.0160089
3195.47	0.0138665
3205.11	0.0137667
3214.75	0.0117052
3224.4	0.0106958
3234.04	0.0117839
3243.68	0.0110252
3253.32	0.0120807
3262.97	0.0102582
3272.61	0.0109266
3282.25	0.00985121
3291.89	0.00824417
3301.53	0.00977272
3311.18	0.00940984
3320.82	0.00924642
3330.46	0.00833622
3340.1	0.00981636
3349.75	0.0123593
3359.39	0.0130311
3369.03	0.0137979
3378.67	0.0136222
3388.32	0.0140558
3397.96	0.0129864
3407.6	0.0114667
3417.24	0.011883
3426.89	0.0155318
3436.53	0.0129835
3446.17	0.0125253
3455.81	0.0175457
3465.45	0.014861
3475.1	0.0118627
3484.74	0.0124623
3494.38	0.0150114
3504.02	0.0112839
3513.67	0.0124191
3523.31	0.0137965
3532.95	0.0146072
3542.59	0.00894652
3552.24	0.0149335
3561.88	0.00958662
3571.52	0.011916
3581.16	0.0134834
3590.8	0.011751
3600.45	0.0134233
3610.09	0.0108603
3619.73	0.0098034
3629.37	0.00949895
3639.02	0.00650236
3648.66	0.008965
3658.3	0.00769182
3667.94	0.0134463
3677.59	0.0101154
3687.23	0.00872475
3696.87	0.0126179
3706.51	0.0150449
3716.16	0.00884804
3725.8	0.0101448
3735.44	0.0127629
3745.08	0.012588
3754.72	0.00585836
3764.37	0.0114861
3774.01	0.00777565
3783.65	0.00947459
3793.29	0.0163483
3802.94	0.00861685
3812.58	0.0119995
3822.22	0.0113876
3831.86	0.0110174
3841.51	0.00954201
3851.15	0.00936295
3860.79	0.010946
3870.43	0.00800473
3880.07	0.0105182
3889.72	0.0170565
3899.36	0.0133427
3909	0.0106903
3918.64	0.00758894
3928.29	0.0129189
3937.93	0.0121424
3947.57	0.00859039
3957.21	0.0123455
3966.86	0.0129942
3976.5	0.0139984
3986.14	0.0148174
3995.78	0.0134602
