Measurement: Infrared, Infrared Data Processed
Mineral: Nontronite
Rruff sample: R070286
Ideal chemistry: Na_0.3_Fe^3+^_2_(Si,Al)_4_O_10_(OH)_2_nH_2_O
Locality: Andreasberg, Sachsen, Germany
Source: Michael Scott
Description: Green granular massive mixed with quartz
Measured chemistry: (Ca_0.19_Na_0.02_)_Σ=0.21_(Fe^3+^_1.93_Mg_0.07_)_Σ=2_(Si_3.67_Fe^3+^_0.21_Al_0.12_)_Σ=4_O_10_(OH)_2_·2.67H_2_O; OH estimated by charge balance; H_2_O by difference
x	intensity
399.193	0.295844
408.835	0.303814
418.477	0.297774
428.12	0.276799
437.762	0.246957
447.404	0.230534
457.047	0.214384
466.689	0.211303
476.331	0.254809
485.974	0.264389
495.616	0.207536
505.258	0.171723
514.901	0.14741
524.543	0.131053
534.185	0.119094
543.828	0.111032
553.47	0.108844
563.112	0.112017
572.755	0.119429
582.397	0.127883
592.039	0.130286
601.682	0.12541
611.324	0.1223
620.966	0.123082
630.609	0.127009
640.251	0.135272
649.893	0.145399
659.536	0.15701
669.178	0.162223
678.82	0.144751
688.463	0.121478
698.105	0.1165
707.747	0.114426
717.39	0.116187
727.032	0.124318
736.674	0.126441
746.317	0.129802
755.959	0.137791
765.601	0.151884
775.244	0.177871
784.886	0.192869
794.528	0.196426
804.171	0.229401
813.813	0.27788
823.455	0.249582
833.098	0.212547
842.74	0.247632
852.382	0.252884
862.025	0.23021
871.667	0.239745
881.309	0.276638
890.952	0.333134
900.594	0.399385
910.236	0.465072
919.879	0.515763
929.521	0.546389
939.163	0.557489
948.806	0.559206
958.448	0.551792
968.09	0.532591
977.733	0.510924
987.375	0.492897
997.017	0.466217
1006.66	0.429807
1016.3	0.387953
1025.94	0.339715
1035.59	0.273649
1045.23	0.208592
1054.87	0.181591
1064.51	0.163149
1074.16	0.145578
1083.8	0.132849
1093.44	0.125134
1103.08	0.121191
1112.72	0.114028
1122.37	0.0981217
1132.01	0.0797882
1141.65	0.0604501
1151.3	0.0446291
1160.94	0.0331212
1170.58	0.025263
1180.22	0.0206951
1189.86	0.0183315
1199.51	0.0175338
1209.15	0.0156723
1218.79	0.0147017
1228.43	0.0141566
1238.08	0.0144532
1247.72	0.0144464
1257.36	0.0144978
1267	0.0151571
1276.64	0.0165185
1286.29	0.019928
1295.93	0.0209532
1305.57	0.0186818
1315.21	0.0171818
1324.86	0.0158997
1334.5	0.0153034
1344.14	0.0154636
1353.78	0.0158385
1363.43	0.0163844
1373.07	0.0166847
1382.71	0.0166939
1392.35	0.0170566
1401.99	0.0182284
1411.64	0.0200281
1421.28	0.0203102
1430.92	0.0210269
1440.57	0.0243062
1450.21	0.0217984
1459.85	0.0208357
1469.49	0.0190749
1479.13	0.0158757
1488.78	0.0153674
1498.42	0.0153678
1508.06	0.0168104
1517.7	0.0169338
1527.35	0.0180324
1536.99	0.0204079
1546.63	0.022451
1556.27	0.0253308
1565.91	0.0277481
1575.56	0.0330805
1585.2	0.0373925
1594.84	0.0446822
1604.48	0.0576293
1614.13	0.0789379
1623.77	0.100311
1633.41	0.105017
1643.05	0.0959512
1652.7	0.0832577
1662.34	0.0681572
1671.98	0.0565786
1681.62	0.0474859
1691.27	0.0408456
1700.91	0.0331055
1710.55	0.0245415
1720.19	0.0193606
1729.84	0.0152676
1739.48	0.0131204
1749.12	0.0116527
1758.76	0.0110795
1768.4	0.0109449
1778.05	0.0106096
1787.69	0.010676
1797.33	0.0107933
1806.97	0.0104047
1816.62	0.0098798
1826.26	0.00969643
1835.9	0.00892041
1845.54	0.00852659
1855.18	0.00798816
1864.83	0.00737745
1874.47	0.00670641
1884.11	0.00686576
1893.75	0.00693355
1903.4	0.00693234
1913.04	0.00647841
1922.68	0.00615417
1932.32	0.00595336
1941.97	0.00535249
1951.61	0.00461776
1961.25	0.00538022
1970.89	0.00319492
1980.54	0.00566765
1990.18	0.00459563
1999.82	0.00590851
2009.46	0.00500805
2019.11	0.00467508
2028.75	0.00487421
2038.39	0.00472841
2048.03	0.00565201
2057.67	0.00682573
2067.32	0.00628332
2076.96	0.00706236
2086.6	0.00759747
2096.24	0.00768214
2105.89	0.0078528
2115.53	0.00798986
2125.17	0.00790036
2134.81	0.00679675
2144.45	0.00738213
2154.1	0.00641836
2163.74	0.00960112
2173.38	0.0081338
2183.02	0.0093257
2192.67	0.00811888
2202.31	0.00825074
2211.95	0.00773084
2221.59	0.00866576
2231.24	0.00847468
2240.88	0.00903507
2250.52	0.00869397
2260.16	0.0082082
2269.8	0.0086687
2279.45	0.00945308
2289.09	0.00893789
2298.73	0.0084372
2308.38	0.00888514
2318.02	0.00931556
2327.66	0.00896202
2337.3	0.00893526
2346.94	0.00858681
2356.59	0.00880161
2366.23	0.00884056
2375.87	0.00778713
2385.51	0.00773398
2395.16	0.00763291
2404.8	0.00681778
2414.44	0.00725742
2424.08	0.00749745
2433.72	0.0073985
2443.37	0.00703223
2453.01	0.0072227
2462.65	0.00610588
2472.29	0.00669265
2481.94	0.00656277
2491.58	0.00662655
2501.22	0.00684772
2510.86	0.00630172
2520.51	0.00648132
2530.15	0.0067974
2539.79	0.00680291
2549.43	0.0068012
2559.07	0.00688536
2568.72	0.00776254
2578.36	0.00764183
2588	0.00813456
2597.64	0.00769667
2607.29	0.00862888
2616.93	0.00900921
2626.57	0.00883131
2636.21	0.00924187
2645.86	0.0097372
2655.5	0.00988789
2665.14	0.0103601
2674.78	0.0103393
2684.43	0.0109681
2694.07	0.0116186
2703.71	0.011965
2713.35	0.012545
2722.99	0.0129722
2732.64	0.0139395
2742.28	0.014341
2751.92	0.015192
2761.56	0.0159145
2771.21	0.0162458
2780.85	0.0171415
2790.49	0.017906
2800.13	0.0191185
2809.78	0.0202163
2819.42	0.0219451
2829.06	0.0241207
2838.7	0.0284844
2848.34	0.034439
2857.99	0.0379379
2867.63	0.0348652
2877.27	0.0343683
2886.91	0.0361778
2896.56	0.0406339
2906.2	0.0455247
2915.84	0.0530476
2925.48	0.0620475
2935.13	0.0571308
2944.77	0.051133
2954.41	0.053769
2964.05	0.0526073
2973.7	0.0493721
2983.34	0.0487411
2992.98	0.0501041
3002.62	0.0521839
3012.26	0.0546985
3021.91	0.0575017
3031.55	0.0607703
3041.19	0.0645326
3050.83	0.0680309
3060.48	0.0718738
3070.12	0.0765322
3079.76	0.0806548
3089.4	0.0860039
3099.05	0.0914129
3108.69	0.0968447
3118.33	0.103296
3127.97	0.110092
3137.61	0.117471
3147.26	0.124534
3156.9	0.132143
3166.54	0.1408
3176.18	0.149113
3185.83	0.157276
3195.47	0.1653
3205.11	0.173615
3214.75	0.179318
3224.4	0.185846
3234.04	0.190401
3243.68	0.194756
3253.32	0.197162
3262.97	0.200224
3272.61	0.203292
3282.25	0.206862
3291.89	0.211473
3301.53	0.215794
3311.18	0.221851
3320.82	0.226825
3330.46	0.232548
3340.1	0.238462
3349.75	0.242088
3359.39	0.245841
3369.03	0.249519
3378.67	0.251964
3388.32	0.252379
3397.96	0.252443
3407.6	0.251122
3417.24	0.249074
3426.89	0.245719
3436.53	0.242607
3446.17	0.238629
3455.81	0.233695
3465.45	0.228564
3475.1	0.224306
3484.74	0.221062
3494.38	0.21799
3504.02	0.217393
3513.67	0.218607
3523.31	0.223518
3532.95	0.235276
3542.59	0.267581
3552.24	0.318892
3561.88	0.361491
3571.52	0.371696
3581.16	0.345577
3590.8	0.293382
3600.45	0.245708
3610.09	0.213301
3619.73	0.191283
3629.37	0.173484
3639.02	0.147797
3648.66	0.115544
3658.3	0.0792853
3667.94	0.0520108
3677.59	0.0336131
3687.23	0.0227851
3696.87	0.0159517
3706.51	0.0113391
3716.16	0.00986785
3725.8	0.00855374
3735.44	0.00867618
3745.08	0.0073069
3754.72	0.00453059
3764.37	0.00424494
3774.01	0.00414034
3783.65	0.0038404
3793.29	0.00207209
3802.94	0.00350215
3812.58	0.00370908
3822.22	0.00406165
3831.86	0.00285719
3841.51	0.00367798
3851.15	0.00287532
3860.79	0.00325223
3870.43	0.00284497
3880.07	0.00372207
3889.72	0.00344719
3899.36	0.00233157
3909	0.00305373
3918.64	0.00313519
3928.29	0.0025165
3937.93	0.00283102
3947.57	0.00228326
3957.21	0.00293422
3966.86	0.00342909
3976.5	0.00267883
3986.14	0.00236774
3995.78	0.00229179
