Measurement: Infrared, Infrared Data Processed
Mineral: Orthoclase
Rruff sample: R040055
Ideal chemistry: KAlSi_3_O_8_
Locality: Madagascar
Source: Bob Downs
Description: Pale yellow fragments
Measured chemistry: K_0.96_(Al_0.96_Si_0.03_Fe_0.02_)Si_3.00_O_8_; = light material. (K_0.90_Na_0.02_)(Al_0.91_Si_0.08_Fe_0.02_)Si_3.00_O_8_ = dark
x	intensity
399.193	0
408.835	0.226233
418.477	0.221599
428.12	0.199542
437.762	0.14467
447.404	0.0967475
457.047	0.0665533
466.689	0.0544595
476.331	0.039691
485.974	0.033047
495.616	0.0312144
505.258	0.0363804
514.901	0.0432394
524.543	0.0580803
534.185	0.0981668
543.828	0.123915
553.47	0.0998281
563.112	0.119409
572.755	0.143711
582.397	0.145734
592.039	0.12619
601.682	0.0966432
611.324	0.072911
620.966	0.0522933
630.609	0.0514419
640.251	0.0654132
649.893	0.0472319
659.536	0.0309903
669.178	0.0277526
678.82	0.0290862
688.463	0.0330902
698.105	0.0464313
707.747	0.0645887
717.39	0.0758603
727.032	0.0760432
736.674	0.0685777
746.317	0.0647086
755.959	0.0620603
765.601	0.0622883
775.244	0.0605312
784.886	0.0527067
794.528	0.0415345
804.171	0.0269854
813.813	0.0206573
823.455	0.0195712
833.098	0.0213701
842.74	0.0249044
852.382	0.0294198
862.025	0.034853
871.667	0.0421111
881.309	0.0508397
890.952	0.0619789
900.594	0.0754449
910.236	0.0931198
919.879	0.116551
929.521	0.146032
939.163	0.182659
948.806	0.226046
958.448	0.271244
968.09	0.311697
977.733	0.339411
987.375	0.352876
997.017	0.354887
1006.66	0.34543
1016.3	0.327873
1025.94	0.308023
1035.59	0.288906
1045.23	0.261644
1054.87	0.224885
1064.51	0.177003
1074.16	0.155386
1083.8	0.151587
1093.44	0.152095
1103.08	0.151769
1112.72	0.150728
1122.37	0.149591
1132.01	0.142143
1141.65	0.120616
1151.3	0.0947382
1160.94	0.0714468
1170.58	0.0524407
1180.22	0.0379894
1189.86	0.0261536
1199.51	0.0175307
1209.15	0.0117051
1218.79	0.00803447
1228.43	0.00561073
1238.08	0.00418405
1247.72	0.00269019
1257.36	0.00174842
1267	0.000797088
1276.64	0.000525398
1286.29	3.89677e-06
1295.93	-0.000121985
1305.57	-0.00035563
1315.21	-0.000329553
1324.86	-0.000696911
1334.5	-0.000668058
1344.14	-0.000988974
1353.78	-0.000923773
1363.43	-0.000993115
1373.07	-0.00114661
1382.71	-0.00144656
1392.35	-0.00121527
1401.99	-0.00136914
1411.64	-0.00127396
1421.28	-0.000722397
1430.92	-0.000736446
1440.57	-0.000913402
1450.21	-0.000637784
1459.85	-0.00040401
1469.49	-0.000486881
1479.13	-0.000567021
1488.78	-0.000872092
1498.42	-0.00116641
1508.06	-0.000963769
1517.7	-0.0013087
1527.35	-0.000897948
1536.99	-0.00175348
1546.63	-0.00113664
1556.27	-0.00173729
1565.91	8.41542e-05
1575.56	-0.000608348
1585.2	0.000386544
1594.84	0.000681126
1604.48	0.000982541
1614.13	0.000971041
1623.77	0.00110381
1633.41	0.000989663
1643.05	0.00129436
1652.7	-0.000397566
1662.34	0.000989769
1671.98	0.0010604
1681.62	0.000422592
1691.27	0.000681913
1700.91	0.00147009
1710.55	0.00150444
1720.19	0.000200232
1729.84	-0.000672208
1739.48	-0.00163839
1749.12	-0.000517548
1758.76	-0.000458085
1768.4	-1.46402e-05
1778.05	-0.000255509
1787.69	-0.000568526
1797.33	-0.00036037
1806.97	-0.000737551
1816.62	-0.00219718
1826.26	-0.000524036
1835.9	-0.00169286
1845.54	-0.00186799
1855.18	-0.00231969
1864.83	-0.00305006
1874.47	-0.00263906
1884.11	-0.00319832
1893.75	-0.00406882
1903.4	-0.00483195
1913.04	-0.00497801
1922.68	-0.00612247
1932.32	-0.00668772
1941.97	-0.00781396
1951.61	-0.00749793
1961.25	-0.00917064
1970.89	-0.0107801
1980.54	-0.00926605
1990.18	-0.0106663
1999.82	-0.0106375
2009.46	-0.0116189
2019.11	-0.0129607
2028.75	-0.0134151
2038.39	-0.00933388
2048.03	-0.01031
2057.67	-0.00737071
2067.32	-0.00717203
2076.96	-0.00687152
2086.6	-0.0057022
2096.24	-0.00703409
2105.89	-0.00656529
2115.53	-0.007528
2125.17	-0.00807332
2134.81	-0.0080987
2144.45	-0.00864845
2154.1	-0.0125994
2163.74	-0.00724047
2173.38	-0.0106972
2183.02	-0.00966074
2192.67	-0.00534841
2202.31	-0.00673279
2211.95	-0.00687104
2221.59	-0.00484867
2231.24	-0.0049756
2240.88	-0.0048893
2250.52	-0.00551281
2260.16	-0.00278511
2269.8	-0.00302018
2279.45	-0.00240838
2289.09	-0.00189777
2298.73	-0.00194047
2308.38	-0.00135442
2318.02	-0.000562504
2327.66	-0.0017405
2337.3	-0.00175097
2346.94	-0.00103543
2356.59	-0.000966577
2366.23	-0.00246463
2375.87	-0.00170026
2385.51	-0.00235825
2395.16	-0.00217409
2404.8	-0.000826771
2414.44	-0.00144659
2424.08	-0.0014153
2433.72	-0.0017051
2443.37	-0.00117586
2453.01	-0.000629897
2462.65	-0.000826561
2472.29	-0.00051977
2481.94	-0.00109011
2491.58	0.000576368
2501.22	-0.000670717
2510.86	-0.000592226
2520.51	-0.000979016
2530.15	-0.000314436
2539.79	0.000330797
2549.43	0.000309835
2559.07	-0.00010266
2568.72	-1.54386e-05
2578.36	2.23834e-05
2588	-0.000375844
2597.64	-0.000137333
2607.29	0.000766976
2616.93	0.000235469
2626.57	0.00030479
2636.21	0.00106976
2645.86	3.56208e-06
2655.5	0.000540777
2665.14	-0.00040086
2674.78	-0.000460153
2684.43	-0.00172799
2694.07	-0.000619076
2703.71	-0.000693084
2713.35	-0.00214627
2722.99	-0.000966885
2732.64	-0.0012427
2742.28	-0.00194083
2751.92	-0.000917828
2761.56	-0.000900843
2771.21	-0.00104369
2780.85	-0.000789617
2790.49	-0.00135342
2800.13	-0.000363791
2809.78	-0.00223243
2819.42	-0.000630281
2829.06	-6.87991e-06
2838.7	-0.0016928
2848.34	-0.00137534
2857.99	-0.000378466
2867.63	-0.000860728
2877.27	-0.00023485
2886.91	-0.00147161
2896.56	-0.0005454
2906.2	-0.000481605
2915.84	-0.00138837
2925.48	0.00126808
2935.13	0.0010789
2944.77	0.000411052
2954.41	-0.000976112
2964.05	-0.000307697
2973.7	-0.00145845
2983.34	0.000661483
2992.98	9.53025e-05
3002.62	8.20648e-05
3012.26	-0.000233745
3021.91	2.5974e-05
3031.55	2.09542e-05
3041.19	-0.000681908
3050.83	-0.000367816
3060.48	0.00025374
3070.12	-0.000130582
3079.76	0.000161658
3089.4	-2.7033e-06
3099.05	-0.00100182
3108.69	-8.35773e-05
3118.33	-6.37928e-05
3127.97	0.000576705
3137.61	0.00107402
3147.26	0.00143069
3156.9	0.0012356
3166.54	0.000509822
3176.18	-0.000166087
3185.83	0.000799005
3195.47	0.00129574
3205.11	-0.000413842
3214.75	0.000195623
3224.4	-0.000371749
3234.04	0.000664712
3243.68	-0.00178838
3253.32	-0.000570938
3262.97	0.000219825
3272.61	-7.04696e-05
3282.25	0.000149988
3291.89	0.000503284
3301.53	-0.00074138
3311.18	-0.000138101
3320.82	-0.000848361
3330.46	0.000543872
3340.1	0.00141475
3349.75	-0.000445791
3359.39	0.000183976
3369.03	1.90731e-05
3378.67	0.0029193
3388.32	0.00170672
3397.96	0.000723217
3407.6	-0.000340437
3417.24	-0.000896266
3426.89	0.000589406
3436.53	0.00345626
3446.17	-0.00146714
3455.81	-0.000354668
3465.45	0.000709117
3475.1	0.00170321
3484.74	0.000654926
3494.38	-0.00084856
3504.02	-0.00478986
3513.67	-0.00167413
3523.31	-0.000216876
3532.95	-0.00283643
3542.59	-0.00239149
3552.24	-0.000755133
3561.88	-0.000112796
3571.52	0.0012968
3581.16	-0.000899398
3590.8	-0.00135189
3600.45	2.97863e-05
3610.09	-0.000929804
3619.73	-0.00168641
3629.37	-0.0029061
3639.02	-0.00084196
3648.66	-0.00199955
3658.3	-0.00289491
3667.94	-0.00314619
3677.59	-0.00410018
3687.23	-0.00412997
3696.87	-0.00309194
3706.51	-0.00566108
3716.16	0.000878094
3725.8	-0.00410623
3735.44	-0.00645959
3745.08	-0.00464331
3754.72	-0.00111725
3764.37	-0.00111584
3774.01	-0.000628889
3783.65	-0.00068574
3793.29	-0.000176071
3802.94	-0.000895575
3812.58	-0.00531863
3822.22	-0.00195091
3831.86	-0.00064604
3841.51	-0.00198622
3851.15	-0.00380989
3860.79	-0.0031844
3870.43	-0.00199047
3880.07	-0.0067174
3889.72	0.000487772
3899.36	-0.00322991
3909	-0.00294497
3918.64	0.000722921
3928.29	-0.00370526
3937.93	-0.00456065
3947.57	-0.00236371
3957.21	-0.00204527
3966.86	0.000261241
3976.5	-0.00557144
3986.14	-0.00104705
3995.78	-0.00144172
