Measurement: Infrared, Infrared Data Processed
Mineral: Parahopeite
Rruff sample: R050463
Ideal chemistry: Zn^2+^_3_(P^5+^O_4_)_2_4H_2_O
Locality: Broken Hill mine, Kabwe, Zambia
Source: University of Arizona Mineral Museum
Description: Colorless elongated subparallel aggregate of crystals
Measured chemistry: Zn_3.00_(P_1.00_O_4_)_2_Â·4H_2_O
x	intensity
372.194	0
381.836	0.0326307
391.479	0.0341859
401.121	0.0417666
410.763	0.0484624
420.406	0.0885171
430.048	0.0833658
439.69	0.0631802
449.333	0.0648014
458.975	0.0778339
468.617	0.0965525
478.26	0.123012
487.902	0.154145
497.544	0.180953
507.187	0.200203
516.829	0.195278
526.471	0.209691
536.114	0.292
545.756	0.300005
555.398	0.21181
565.041	0.256431
574.683	0.22551
584.325	0.145673
593.968	0.145354
603.61	0.172662
613.252	0.186638
622.895	0.189487
632.537	0.197664
642.179	0.211621
651.822	0.193521
661.464	0.151227
671.106	0.145654
680.749	0.152978
690.391	0.154196
700.033	0.149872
709.676	0.141915
719.318	0.130974
728.96	0.118255
738.603	0.108016
748.245	0.100818
757.887	0.0964678
767.53	0.094586
777.172	0.0991396
786.814	0.114041
796.457	0.134363
806.099	0.140288
815.741	0.12076
825.384	0.0944927
835.026	0.0755246
844.668	0.0657381
854.311	0.0614756
863.953	0.0615405
873.595	0.0648757
883.238	0.0719571
892.88	0.0805838
902.522	0.0856182
912.165	0.0890643
921.807	0.0941005
931.449	0.111177
941.092	0.166995
950.734	0.258619
960.376	0.162915
970.019	0.098531
979.661	0.136302
989.303	0.2307
998.946	0.379709
1008.59	0.478094
1018.23	0.438202
1027.87	0.368932
1037.52	0.340182
1047.16	0.374128
1056.8	0.333662
1066.44	0.293148
1076.08	0.23873
1085.73	0.19155
1095.37	0.159286
1105.01	0.140386
1114.65	0.119186
1124.3	0.0880812
1133.94	0.055675
1143.58	0.0315693
1153.22	0.0208277
1162.87	0.0159331
1172.51	0.0128359
1182.15	0.0109159
1191.79	0.00988047
1201.43	0.00923813
1211.08	0.00872798
1220.72	0.00868167
1230.36	0.0080247
1240	0.00793697
1249.65	0.00783767
1259.29	0.00806671
1268.93	0.00811062
1278.57	0.00847182
1288.22	0.00895822
1297.86	0.00907623
1307.5	0.00953779
1317.14	0.0100336
1326.79	0.0105064
1336.43	0.0110683
1346.07	0.0116986
1355.71	0.0124948
1365.35	0.0130392
1375	0.0134505
1384.64	0.0137208
1394.28	0.0141623
1403.92	0.0146029
1413.57	0.0150942
1423.21	0.016098
1432.85	0.0172019
1442.49	0.0183952
1452.13	0.019699
1461.78	0.020861
1471.42	0.0219412
1481.06	0.0235679
1490.7	0.0246067
1500.35	0.0261409
1509.99	0.0274912
1519.63	0.0285017
1529.27	0.029573
1538.92	0.0301158
1548.56	0.0302807
1558.2	0.0297131
1567.84	0.0289008
1577.49	0.0282283
1587.13	0.027524
1596.77	0.0273202
1606.41	0.0271223
1616.06	0.0271382
1625.7	0.0275778
1635.34	0.028223
1644.98	0.0290268
1654.62	0.0295024
1664.27	0.0305978
1673.91	0.0313783
1683.55	0.032161
1693.19	0.0312203
1702.84	0.0285398
1712.48	0.024465
1722.12	0.0201808
1731.76	0.0167676
1741.4	0.0136875
1751.05	0.0115903
1760.69	0.0112536
1770.33	0.0108982
1779.97	0.0102068
1789.62	0.0098262
1799.26	0.00986527
1808.9	0.00915077
1818.54	0.00863205
1828.19	0.00879855
1837.83	0.00859333
1847.47	0.0085078
1857.11	0.0090287
1866.76	0.00814644
1876.4	0.00831003
1886.04	0.00828097
1895.68	0.00910613
1905.33	0.00980351
1914.97	0.00930436
1924.61	0.0098243
1934.25	0.010695
1943.89	0.0119826
1953.54	0.01253
1963.18	0.014819
1972.82	0.0156265
1982.46	0.0138427
1992.11	0.0138571
2001.75	0.0125011
2011.39	0.0134572
2021.03	0.010789
2030.67	0.0154945
2040.32	0.0146336
2049.96	0.0147
2059.6	0.0133093
2069.24	0.0134836
2078.89	0.0127959
2088.53	0.0120142
2098.17	0.0125714
2107.81	0.0125814
2117.46	0.0124565
2127.1	0.012408
2136.74	0.0138835
2146.38	0.0139486
2156.03	0.0185456
2165.67	0.0203554
2175.31	0.0171612
2184.95	0.0202055
2194.59	0.0189999
2204.24	0.0177849
2213.88	0.0178232
2223.52	0.0184637
2233.16	0.0182405
2242.81	0.0179288
2252.45	0.0180751
2262.09	0.0179101
2271.73	0.0193992
2281.38	0.0186154
2291.02	0.0182131
2300.66	0.0178114
2310.3	0.0160367
2319.95	0.0166133
2329.59	0.0151058
2339.23	0.0153552
2348.87	0.0156438
2358.51	0.0150876
2368.16	0.0156581
2377.8	0.0163903
2387.44	0.0169268
2397.08	0.0163297
2406.73	0.0174284
2416.37	0.0182031
2426.01	0.018071
2435.65	0.0180296
2445.3	0.0191599
2454.94	0.0188135
2464.58	0.0186894
2474.22	0.0190187
2483.86	0.0189748
2493.51	0.0189248
2503.15	0.0188403
2512.79	0.0186115
2522.43	0.018875
2532.08	0.019099
2541.72	0.0194409
2551.36	0.019585
2561	0.0205376
2570.65	0.0211427
2580.29	0.0212749
2589.93	0.0218513
2599.57	0.0219134
2609.22	0.0231821
2618.86	0.0237445
2628.5	0.024347
2638.14	0.024605
2647.78	0.0253049
2657.43	0.0257831
2667.07	0.0257391
2676.71	0.0267599
2686.35	0.02761
2696	0.0284094
2705.64	0.0297227
2715.28	0.0306773
2724.92	0.0319747
2734.57	0.0330649
2744.21	0.0344563
2753.85	0.0358703
2763.49	0.0368344
2773.14	0.0387967
2782.78	0.0404508
2792.42	0.0422265
2802.06	0.0442366
2811.7	0.0464298
2821.35	0.0484325
2830.99	0.0509003
2840.63	0.0523473
2850.27	0.0521293
2859.92	0.0554622
2869.56	0.0589132
2879.2	0.0620366
2888.84	0.0650257
2898.49	0.0661949
2908.13	0.0691693
2917.77	0.0699311
2927.41	0.0729113
2937.05	0.0789518
2946.7	0.0853861
2956.34	0.0896988
2965.98	0.0946371
2975.62	0.098915
2985.27	0.101956
2994.91	0.104586
3004.55	0.106837
3014.19	0.107224
3023.84	0.108506
3033.48	0.109552
3043.12	0.111388
3052.76	0.112078
3062.41	0.114635
3072.05	0.118694
3081.69	0.122759
3091.33	0.129056
3100.97	0.138676
3110.62	0.147872
3120.26	0.156635
3129.9	0.161758
3139.54	0.15873
3149.19	0.151108
3158.83	0.14368
3168.47	0.13809
3178.11	0.135667
3187.76	0.134857
3197.4	0.135688
3207.04	0.134501
3216.68	0.135719
3226.32	0.136249
3235.97	0.136906
3245.61	0.138139
3255.25	0.141127
3264.89	0.145448
3274.54	0.151017
3284.18	0.156462
3293.82	0.159991
3303.46	0.159347
3313.11	0.155474
3322.75	0.14632
3332.39	0.136528
3342.03	0.125778
3351.68	0.116644
3361.32	0.108784
3370.96	0.10191
3380.6	0.0960204
3390.24	0.0914701
3399.89	0.0891605
3409.53	0.0909789
3419.17	0.0952931
3428.81	0.102747
3438.46	0.111496
3448.1	0.114869
3457.74	0.103323
3467.38	0.0792195
3477.03	0.0558452
3486.67	0.0409974
3496.31	0.0322387
3505.95	0.0266764
3515.59	0.0226735
3525.24	0.0193829
3534.88	0.0177605
3544.52	0.0161426
3554.16	0.0141087
3563.81	0.0141132
3573.45	0.0116194
3583.09	0.0113077
3592.73	0.0101715
3602.38	0.00950875
3612.02	0.00768859
3621.66	0.00709479
3631.3	0.0076124
3640.95	0.00688374
3650.59	0.00662185
3660.23	0.00600386
3669.87	0.00709846
3679.51	0.0063036
3689.16	0.00575666
3698.8	0.00687397
3708.44	0.00701415
3718.08	0.00730583
3727.73	0.00774581
3737.37	0.00716123
3747.01	0.00773256
3756.65	0.007705
3766.3	0.00753378
3775.94	0.00729765
3785.58	0.00727372
3795.22	0.00830857
3804.86	0.00828955
3814.51	0.00745062
3824.15	0.00806915
3833.79	0.00817463
3843.43	0.00783819
3853.08	0.0083055
3862.72	0.00844906
3872.36	0.00859129
3882	0.00871416
3891.65	0.00819711
3901.29	0.00904365
3910.93	0.0101246
3920.57	0.00894837
3930.22	0.00916045
3939.86	0.00977124
3949.5	0.0105666
3959.14	0.0087678
3968.78	0.0100481
3978.43	0.00921588
3988.07	0.00919597
3997.71	0.0093355
