Measurement: Infrared, Infrared Data Processed
Mineral: Pearceite
Rruff sample: R050611
Ideal chemistry: Cu(Ag,Cu)_6_Ag_9_As_2_S_11_
Locality: Imiter mine, Morocco
Source: Marcus Origlieri
Description: Dark red flakes. The cell parameters indicate that this is pearceite-M2a2b2c
Measured chemistry: Cu_1.00_(Ag_5.83_Cu_0.17_)_Î£=6.00_Ag_10.78_As_1.99_S_11_
x	intensity
399.193	0.146363
408.835	0.145472
418.477	0.156738
428.12	0.165399
437.762	0.181142
447.404	0.191246
457.047	0.196497
466.689	0.205332
476.331	0.206883
485.974	0.212502
495.616	0.216565
505.258	0.222948
514.901	0.229389
524.543	0.233458
534.185	0.240375
543.828	0.246231
553.47	0.252846
563.112	0.255828
572.755	0.259302
582.397	0.264718
592.039	0.268077
601.682	0.27229
611.324	0.27725
620.966	0.280866
630.609	0.285495
640.251	0.288032
649.893	0.292035
659.536	0.294597
669.178	0.297741
678.82	0.299235
688.463	0.301189
698.105	0.304497
707.747	0.308228
717.39	0.310441
727.032	0.315026
736.674	0.318999
746.317	0.317961
755.959	0.321141
765.601	0.323995
775.244	0.326537
784.886	0.330257
794.528	0.333318
804.171	0.337997
813.813	0.339769
823.455	0.342816
833.098	0.34424
842.74	0.347419
852.382	0.34899
862.025	0.354588
871.667	0.354548
881.309	0.354558
890.952	0.356538
900.594	0.35924
910.236	0.362901
919.879	0.36679
929.521	0.369826
939.163	0.373699
948.806	0.378309
958.448	0.382283
968.09	0.386576
977.733	0.391678
987.375	0.393451
997.017	0.395047
1006.66	0.395751
1016.3	0.397162
1025.94	0.39767
1035.59	0.400696
1045.23	0.401407
1054.87	0.403088
1064.51	0.405777
1074.16	0.407375
1083.8	0.409079
1093.44	0.410726
1103.08	0.413307
1112.72	0.414566
1122.37	0.416581
1132.01	0.41998
1141.65	0.424881
1151.3	0.427221
1160.94	0.427977
1170.58	0.428961
1180.22	0.430616
1189.86	0.434067
1199.51	0.436224
1209.15	0.437972
1218.79	0.439046
1228.43	0.440883
1238.08	0.442919
1247.72	0.443526
1257.36	0.444967
1267	0.444954
1276.64	0.446925
1286.29	0.448856
1295.93	0.451025
1305.57	0.452315
1315.21	0.455639
1324.86	0.456879
1334.5	0.459582
1344.14	0.462413
1353.78	0.464446
1363.43	0.468794
1373.07	0.47088
1382.71	0.47479
1392.35	0.478638
1401.99	0.483344
1411.64	0.48504
1421.28	0.485938
1430.92	0.487001
1440.57	0.487078
1450.21	0.487514
1459.85	0.48756
1469.49	0.487443
1479.13	0.48773
1488.78	0.488493
1498.42	0.488436
1508.06	0.489735
1517.7	0.489212
1527.35	0.490714
1536.99	0.492347
1546.63	0.493681
1556.27	0.495125
1565.91	0.496228
1575.56	0.497909
1585.2	0.499566
1594.84	0.501112
1604.48	0.50295
1614.13	0.505349
1623.77	0.50579
1633.41	0.507998
1643.05	0.509827
1652.7	0.51086
1662.34	0.51303
1671.98	0.514246
1681.62	0.515664
1691.27	0.517603
1700.91	0.518783
1710.55	0.520278
1720.19	0.522588
1729.84	0.52575
1739.48	0.52369
1749.12	0.523054
1758.76	0.525375
1768.4	0.527387
1778.05	0.528497
1787.69	0.528678
1797.33	0.529768
1806.97	0.530042
1816.62	0.530502
1826.26	0.530351
1835.9	0.530661
1845.54	0.530227
1855.18	0.533012
1864.83	0.533256
1874.47	0.534794
1884.11	0.534668
1893.75	0.535197
1903.4	0.534714
1913.04	0.535286
1922.68	0.536256
1932.32	0.533091
1941.97	0.534509
1951.61	0.526392
1961.25	0.523884
1970.89	0.524192
1980.54	0.524418
1990.18	0.524594
1999.82	0.526866
2009.46	0.528527
2019.11	0.527726
2028.75	0.528007
2038.39	0.538619
2048.03	0.538476
2057.67	0.543923
2067.32	0.549532
2076.96	0.554715
2086.6	0.559951
2096.24	0.560635
2105.89	0.561932
2115.53	0.565798
2125.17	0.566635
2134.81	0.556972
2144.45	0.551079
2154.1	0.541688
2163.74	0.544697
2173.38	0.554457
2183.02	0.55054
2192.67	0.562142
2202.31	0.561613
2211.95	0.570209
2221.59	0.573485
2231.24	0.575517
2240.88	0.575995
2250.52	0.579743
2260.16	0.586518
2269.8	0.588148
2279.45	0.593151
2289.09	0.595876
2298.73	0.599034
2308.38	0.602519
2318.02	0.605217
2327.66	0.610333
2337.3	0.610006
2346.94	0.611503
2356.59	0.613876
2366.23	0.613204
2375.87	0.612394
2385.51	0.612657
2395.16	0.613153
2404.8	0.61386
2414.44	0.613914
2424.08	0.614833
2433.72	0.615283
2443.37	0.617934
2453.01	0.617308
2462.65	0.619894
2472.29	0.617758
2481.94	0.619785
2491.58	0.624453
2501.22	0.622865
2510.86	0.624982
2520.51	0.625586
2530.15	0.626483
2539.79	0.630046
2549.43	0.62834
2559.07	0.629858
2568.72	0.634177
2578.36	0.634014
2588	0.636771
2597.64	0.63805
2607.29	0.640049
2616.93	0.642304
2626.57	0.643055
2636.21	0.646853
2645.86	0.649771
2655.5	0.654038
2665.14	0.653955
2674.78	0.654858
2684.43	0.655431
2694.07	0.656856
2703.71	0.657996
2713.35	0.659194
2722.99	0.661196
2732.64	0.661334
2742.28	0.661743
2751.92	0.664388
2761.56	0.665938
2771.21	0.667056
2780.85	0.668702
2790.49	0.667778
2800.13	0.670525
2809.78	0.670437
2819.42	0.672625
2829.06	0.673345
2838.7	0.675107
2848.34	0.675494
2857.99	0.677273
2867.63	0.676647
2877.27	0.679504
2886.91	0.678481
2896.56	0.681863
2906.2	0.681206
2915.84	0.685502
2925.48	0.682099
2935.13	0.680552
2944.77	0.682899
2954.41	0.685066
2964.05	0.684381
2973.7	0.687215
2983.34	0.683473
2992.98	0.687358
3002.62	0.686588
3012.26	0.689122
3021.91	0.691539
3031.55	0.69119
3041.19	0.692943
3050.83	0.693455
3060.48	0.694545
3070.12	0.693454
3079.76	0.698316
3089.4	0.699524
3099.05	0.696382
3108.69	0.699381
3118.33	0.702999
3127.97	0.701186
3137.61	0.700697
3147.26	0.700697
3156.9	0.702445
3166.54	0.705155
3176.18	0.706443
3185.83	0.708439
3195.47	0.709227
3205.11	0.707808
3214.75	0.709499
3224.4	0.709064
3234.04	0.712607
3243.68	0.711263
3253.32	0.714433
3262.97	0.715457
3272.61	0.716669
3282.25	0.720098
3291.89	0.717523
3301.53	0.720576
3311.18	0.719093
3320.82	0.721986
3330.46	0.721735
3340.1	0.723866
3349.75	0.724666
3359.39	0.721709
3369.03	0.730443
3378.67	0.728061
3388.32	0.730468
3397.96	0.724822
3407.6	0.732198
3417.24	0.728778
3426.89	0.732324
3436.53	0.736157
3446.17	0.730191
3455.81	0.731899
3465.45	0.730967
3475.1	0.730653
3484.74	0.734416
3494.38	0.732609
3504.02	0.737777
3513.67	0.733805
3523.31	0.731185
3532.95	0.736887
3542.59	0.737541
3552.24	0.74532
3561.88	0.738614
3571.52	0.735481
3581.16	0.744809
3590.8	0.738986
3600.45	0.741598
3610.09	0.739141
3619.73	0.741826
3629.37	0.744788
3639.02	0.74376
3648.66	0.746391
3658.3	0.747218
3667.94	0.743781
3677.59	0.751943
3687.23	0.749739
3696.87	0.750241
3706.51	0.745443
3716.16	0.753073
3725.8	0.753157
3735.44	0.754097
3745.08	0.750113
3754.72	0.757004
3764.37	0.753108
3774.01	0.757343
3783.65	0.752869
3793.29	0.761503
3802.94	0.76432
3812.58	0.754718
3822.22	0.7583
3831.86	0.76269
3841.51	0.765677
3851.15	0.766122
3860.79	0.769618
3870.43	0.76703
3880.07	0.776417
3889.72	0.768881
3899.36	0.776508
3909	0.771432
3918.64	0.771276
3928.29	0.764432
3937.93	0.769274
3947.57	0.774076
3957.21	0.776258
3966.86	0.7749
3976.5	0.777455
3986.14	0.775659
3995.78	0.769687
