Measurement: Infrared, Infrared Data Processed
Mineral: Petalite
Rruff sample: R040100
Ideal chemistry: LiAlSi_4_O_10_
Locality: Brazil
Source: Bob Downs
Description: Pale purple cut gemstone
Measured chemistry: Li_1.00_Al_1.00_Si_4.00_O_10_
x	intensity
399.193	0.475113
408.835	0.40892
418.477	0.31022
428.12	0.241246
437.762	0.176017
447.404	0.143476
457.047	0.150612
466.689	0.198818
476.331	0.148771
485.974	0.105132
495.616	0.0880808
505.258	0.104122
514.901	0.157492
524.543	0.218444
534.185	0.177796
543.828	0.178632
553.47	0.171479
563.112	0.135159
572.755	0.0898773
582.397	0.0778466
592.039	0.0788416
601.682	0.0775956
611.324	0.0738012
620.966	0.0694639
630.609	0.0652714
640.251	0.0613823
649.893	0.0587589
659.536	0.0564792
669.178	0.0558582
678.82	0.0551224
688.463	0.0584509
698.105	0.075188
707.747	0.102113
717.39	0.0639816
727.032	0.0761452
736.674	0.102061
746.317	0.0824971
755.959	0.0979868
765.601	0.0684727
775.244	0.0832043
784.886	0.0728764
794.528	0.0384235
804.171	0.0331296
813.813	0.0319636
823.455	0.0318039
833.098	0.0319691
842.74	0.03301
852.382	0.0347845
862.025	0.0379364
871.667	0.0424369
881.309	0.0484611
890.952	0.0560906
900.594	0.0653182
910.236	0.0776153
919.879	0.0941736
929.521	0.117701
939.163	0.15066
948.806	0.195942
958.448	0.255597
968.09	0.329745
977.733	0.41519
987.375	0.501163
997.017	0.575241
1006.66	0.603371
1016.3	0.55819
1025.94	0.48067
1035.59	0.440363
1045.23	0.447457
1054.87	0.448627
1064.51	0.472316
1074.16	0.432392
1083.8	0.374688
1093.44	0.307785
1103.08	0.254405
1112.72	0.216825
1122.37	0.187691
1132.01	0.163541
1141.65	0.142752
1151.3	0.128383
1160.94	0.134713
1170.58	0.125341
1180.22	0.110519
1189.86	0.106012
1199.51	0.115727
1209.15	0.122674
1218.79	0.113736
1228.43	0.097819
1238.08	0.0753089
1247.72	0.049248
1257.36	0.0273597
1267	0.0145417
1276.64	0.00905669
1286.29	0.00653104
1295.93	0.00516836
1305.57	0.00416701
1315.21	0.00341926
1324.86	0.00306523
1334.5	0.00252315
1344.14	0.00219314
1353.78	0.00193708
1363.43	0.00170048
1373.07	0.00172469
1382.71	0.00160062
1392.35	0.00166626
1401.99	0.00161886
1411.64	0.00134381
1421.28	0.00145094
1430.92	0.00145533
1440.57	0.00123915
1450.21	0.00109886
1459.85	0.000830775
1469.49	0.000412682
1479.13	0.000399459
1488.78	0.000460156
1498.42	0.000488974
1508.06	0.000869814
1517.7	0.000448905
1527.35	0.000320926
1536.99	0.000560125
1546.63	0.000285971
1556.27	0.000834252
1565.91	0.00082183
1575.56	0.00164509
1585.2	0.00147062
1594.84	0.00188379
1604.48	0.00237154
1614.13	0.00252137
1623.77	0.00290461
1633.41	0.00278169
1643.05	0.00221058
1652.7	0.0028542
1662.34	0.00137272
1671.98	0.000613125
1681.62	0.00030053
1691.27	-0.000257267
1700.91	0.000184317
1710.55	-0.000787111
1720.19	-0.000706599
1729.84	-0.0014523
1739.48	-0.00194443
1749.12	-0.00216812
1758.76	-0.00171747
1768.4	-0.0012623
1778.05	-0.00137899
1787.69	-0.00151369
1797.33	-0.00129873
1806.97	-0.00154364
1816.62	-0.00169894
1826.26	-0.00130747
1835.9	-0.00176069
1845.54	-0.0016485
1855.18	-0.00192566
1864.83	-0.00237351
1874.47	-0.00315133
1884.11	-0.00400735
1893.75	-0.00321715
1903.4	-0.00365658
1913.04	-0.00358559
1922.68	-0.00367525
1932.32	-0.00364548
1941.97	-0.0038627
1951.61	-0.00423354
1961.25	-0.00326502
1970.89	-0.00454207
1980.54	-0.00401085
1990.18	-0.00620069
1999.82	-0.00415261
2009.46	-0.00526228
2019.11	-0.00583874
2028.75	-0.00435059
2038.39	-0.00602175
2048.03	-0.00606315
2057.67	-0.00530854
2067.32	-0.0060535
2076.96	-0.00617703
2086.6	-0.00668957
2096.24	-0.0061285
2105.89	-0.00580387
2115.53	-0.00568157
2125.17	-0.00613953
2134.81	-0.00660867
2144.45	-0.00743323
2154.1	-0.00593127
2163.74	-0.00460243
2173.38	-0.00482441
2183.02	-0.00491375
2192.67	-0.00591223
2202.31	-0.00357326
2211.95	-0.00427189
2221.59	-0.00380263
2231.24	-0.00439026
2240.88	-0.00312584
2250.52	-0.00386214
2260.16	-0.00489708
2269.8	-0.00413724
2279.45	-0.00362784
2289.09	-0.00446593
2298.73	-0.00488284
2308.38	-0.00539488
2318.02	-0.00513508
2327.66	-0.00446701
2337.3	-0.00472109
2346.94	-0.00520639
2356.59	-0.00477697
2366.23	-0.00434185
2375.87	-0.00560967
2385.51	-0.00614621
2395.16	-0.00611161
2404.8	-0.00752904
2414.44	-0.00649803
2424.08	-0.00674133
2433.72	-0.00709402
2443.37	-0.00699435
2453.01	-0.00615573
2462.65	-0.00612939
2472.29	-0.00644357
2481.94	-0.00613395
2491.58	-0.00568645
2501.22	-0.00550045
2510.86	-0.00543765
2520.51	-0.00527153
2530.15	-0.00481175
2539.79	-0.00494531
2549.43	-0.00433979
2559.07	-0.00407297
2568.72	-0.00425046
2578.36	-0.00414298
2588	-0.00440546
2597.64	-0.00427771
2607.29	-0.00400995
2616.93	-0.00418236
2626.57	-0.00449332
2636.21	-0.00374731
2645.86	-0.0040371
2655.5	-0.00412301
2665.14	-0.00445801
2674.78	-0.00472483
2684.43	-0.00489181
2694.07	-0.00460257
2703.71	-0.00471102
2713.35	-0.00477159
2722.99	-0.00490093
2732.64	-0.00432809
2742.28	-0.00434856
2751.92	-0.00445648
2761.56	-0.00447051
2771.21	-0.00421352
2780.85	-0.00418033
2790.49	-0.00433838
2800.13	-0.0047257
2809.78	-0.00425498
2819.42	-0.00493982
2829.06	-0.00402294
2838.7	-0.00473121
2848.34	-0.00677745
2857.99	-0.00604435
2867.63	-0.00526668
2877.27	-0.00476912
2886.91	-0.00544582
2896.56	-0.00512913
2906.2	-0.00599213
2915.84	-0.00841145
2925.48	-0.00819031
2935.13	-0.006364
2944.77	-0.00590783
2954.41	-0.00526599
2964.05	-0.00468379
2973.7	-0.00443724
2983.34	-0.00451976
2992.98	-0.00489257
3002.62	-0.00444854
3012.26	-0.00416486
3021.91	-0.00415888
3031.55	-0.00377214
3041.19	-0.00386436
3050.83	-0.00406165
3060.48	-0.003295
3070.12	-0.00384113
3079.76	-0.0033725
3089.4	-0.00289886
3099.05	-0.00308033
3108.69	-0.00280217
3118.33	-0.0029089
3127.97	-0.00215647
3137.61	-0.00230614
3147.26	-0.00190709
3156.9	-0.00166485
3166.54	-0.00192077
3176.18	-0.00151743
3185.83	-0.00139919
3195.47	-0.00177913
3205.11	-0.00128497
3214.75	-0.000701509
3224.4	-0.00138798
3234.04	-0.000703858
3243.68	-0.00108558
3253.32	-0.000784792
3262.97	-0.000305753
3272.61	-0.00066345
3282.25	-0.000873292
3291.89	-0.000825131
3301.53	-0.00100895
3311.18	-0.00125882
3320.82	-0.000496658
3330.46	-0.000510734
3340.1	0.000112662
3349.75	-0.0012493
3359.39	-0.000494411
3369.03	-0.000643275
3378.67	-0.00094297
3388.32	-0.000546025
3397.96	-0.000610977
3407.6	-0.000927807
3417.24	-0.000960225
3426.89	-0.000786489
3436.53	-0.00122373
3446.17	-0.000779534
3455.81	-0.00196584
3465.45	-0.00151561
3475.1	-0.00243835
3484.74	-0.00199919
3494.38	-0.00254368
3504.02	-0.00181395
3513.67	-0.00226376
3523.31	-0.00280317
3532.95	-0.00282089
3542.59	-0.00322911
3552.24	-0.00268259
3561.88	-0.00378841
3571.52	-0.00446004
3581.16	-0.00443939
3590.8	-0.00460747
3600.45	-0.00552492
3610.09	-0.0041164
3619.73	-0.00526297
3629.37	-0.00573039
3639.02	-0.00713024
3648.66	-0.00726042
3658.3	-0.00873969
3667.94	-0.00883255
3677.59	-0.0095677
3687.23	-0.00895118
3696.87	-0.0106455
3706.51	-0.0100586
3716.16	-0.0104817
3725.8	-0.0102279
3735.44	-0.00951912
3745.08	-0.00937235
3754.72	-0.0105647
3764.37	-0.0102979
3774.01	-0.0100239
3783.65	-0.0118335
3793.29	-0.0115126
3802.94	-0.0106275
3812.58	-0.0117231
3822.22	-0.0102195
3831.86	-0.00990133
3841.51	-0.0116465
3851.15	-0.00949337
3860.79	-0.0119717
3870.43	-0.010734
3880.07	-0.0114608
3889.72	-0.011221
3899.36	-0.0110123
3909	-0.0118317
3918.64	-0.0123975
3928.29	-0.0126015
3937.93	-0.0123174
3947.57	-0.0122257
3957.21	-0.0124952
3966.86	-0.0125482
3976.5	-0.0125824
3986.14	-0.0129767
3995.78	-0.0124426
