Measurement: Infrared, Infrared Data Processed
Mineral: Phosphophyllite
Rruff sample: R050224
Ideal chemistry: Zn^2+^_2_Fe^2+^(P^5+^O_4_)_2_4H_2_O
Locality: Unificada mine, Cerro Rico, Potosi, Bolivia
Source: Marcus Origlieri
Description: Pale blue single crystal fragments
Measured chemistry: Zn_2.00_Fe^2+^_1.00_(P_1.00_O_4_)_2_Â·4H_2_O
x	intensity
50.1401	-0.00327932
52.0686	0.000561268
53.9971	0.00461669
55.9255	0.0204792
57.854	0.0286207
59.7825	0.0309391
61.7109	0.026942
63.6394	0.0273456
65.5679	0.0270617
67.4963	0.0231221
69.4248	0.0254451
71.3533	0.0268923
73.2817	0.0252426
75.2102	0.0251954
77.1387	0.0282117
79.0671	0.0302764
80.9956	0.0282968
82.9241	0.0269451
84.8525	0.0272896
86.781	0.0279011
88.7095	0.0286717
90.6379	0.0298746
92.5664	0.0306884
94.4948	0.0321355
96.4233	0.033719
98.3518	0.0336348
100.28	0.0321907
102.209	0.0329003
104.137	0.0330578
106.066	0.0327046
107.994	0.0324972
109.923	0.0321195
111.851	0.032143
113.779	0.03203
115.708	0.0316678
117.636	0.0326934
119.565	0.0347277
121.493	0.037004
123.422	0.0387683
125.35	0.0396778
127.279	0.0410794
129.207	0.0426836
131.136	0.0444954
133.064	0.0453298
134.993	0.0452188
136.921	0.046021
138.85	0.0460487
140.778	0.0453818
142.707	0.0444355
144.635	0.0437056
146.563	0.0448006
148.492	0.0465455
150.42	0.0479102
152.349	0.0485333
154.277	0.0480447
156.206	0.0466473
158.134	0.0449933
160.063	0.0442462
161.991	0.0439365
163.92	0.0445597
165.848	0.0458555
167.777	0.0474268
169.705	0.0495311
171.633	0.051695
173.562	0.0527844
175.49	0.0534438
177.419	0.0543121
179.347	0.0539035
181.276	0.0525209
183.204	0.0510184
185.133	0.0494632
187.061	0.04787
188.99	0.046589
190.918	0.0462514
192.847	0.0464041
194.775	0.0465474
196.704	0.0466652
198.632	0.0467569
200.56	0.0472672
202.489	0.0476278
204.417	0.0480615
206.346	0.0488914
208.274	0.0500451
210.203	0.0517611
212.131	0.0536285
214.06	0.0548574
215.988	0.0559284
217.917	0.0567245
219.845	0.0568266
221.774	0.056639
223.702	0.0559457
225.631	0.0545149
227.559	0.0533668
229.488	0.0527588
231.416	0.0526241
233.344	0.0525136
235.273	0.0527661
237.201	0.0535843
239.13	0.0543626
241.058	0.054641
242.987	0.0545313
244.915	0.0543479
246.844	0.0540957
248.772	0.0535834
250.701	0.0535173
252.629	0.0538899
254.558	0.0545691
256.486	0.0557365
258.414	0.0573925
260.343	0.0586715
262.271	0.0599134
264.2	0.0609745
266.128	0.0615361
268.057	0.0621281
269.985	0.0631698
271.914	0.0644968
273.842	0.0656602
275.771	0.0672032
277.699	0.0691152
279.628	0.0705846
281.556	0.0716151
283.485	0.0724238
285.413	0.0728003
287.341	0.0725525
289.27	0.071967
291.198	0.0707791
293.127	0.0694558
295.055	0.0677344
296.984	0.0656923
298.912	0.0635795
300.841	0.0616529
302.769	0.0596127
304.698	0.0575658
306.626	0.0562412
308.555	0.0555027
310.483	0.0549795
312.411	0.0548741
314.34	0.0549748
316.269	0.0554689
318.197	0.0559553
320.125	0.056656
322.054	0.0573531
323.982	0.0579431
325.911	0.0583564
327.839	0.0586341
329.768	0.0583377
331.696	0.0575934
333.625	0.0568254
335.553	0.0564386
337.482	0.0563779
339.41	0.0564489
341.339	0.0568255
343.267	0.0572848
345.195	0.0577101
347.124	0.0584331
349.052	0.0590683
350.981	0.059588
352.909	0.0600241
354.838	0.0605623
356.766	0.0603556
358.695	0.0600292
360.623	0.0595999
362.552	0.0589792
364.48	0.0582246
366.409	0.0572612
368.337	0.0560124
370.265	0.0544502
372.194	0.0530726
374.122	0.0519602
376.051	0.0507541
377.979	0.04965
379.908	0.0485641
381.836	0.0476542
383.765	0.0469677
385.693	0.0464629
387.622	0.0459362
389.55	0.0455232
391.479	0.045088
393.407	0.0446038
395.336	0.0440186
397.264	0.0437048
399.192	0.0435949
401.121	0.043713
403.049	0.0440805
404.978	0.0446712
406.906	0.0449686
408.835	0.0453037
410.763	0.0460874
412.692	0.0474835
414.62	0.0489095
416.549	0.0503164
418.477	0.0517012
420.406	0.0533454
422.334	0.0547639
424.262	0.0561617
426.191	0.057372
428.12	0.0581861
430.048	0.05888
431.976	0.0594694
433.905	0.0597514
435.833	0.0599979
437.762	0.0598505
439.69	0.0596433
441.619	0.0594698
443.547	0.0593067
445.476	0.0587332
447.404	0.0583909
449.333	0.058071
451.261	0.0580301
453.19	0.0581004
455.118	0.0580477
457.046	0.0576632
458.975	0.0573313
460.903	0.0574981
462.832	0.0581853
464.76	0.0585598
466.689	0.0587091
468.617	0.0583937
470.546	0.0584019
472.474	0.0590197
474.403	0.0595797
476.331	0.0599153
478.26	0.0604257
480.188	0.0610202
482.116	0.0619571
484.045	0.0623272
485.974	0.0628809
487.902	0.063627
489.83	0.0644952
491.759	0.0655705
493.687	0.0663553
495.616	0.0672383
497.544	0.0683793
499.473	0.0690149
501.401	0.0695513
503.33	0.070187
505.258	0.0709601
507.187	0.0717416
509.115	0.0719889
511.043	0.0722418
512.972	0.0730658
514.9	0.0740037
516.829	0.074833
518.757	0.0752975
520.686	0.0758311
522.614	0.0767012
524.543	0.0775494
526.471	0.0780604
528.4	0.0785926
530.328	0.0792531
532.257	0.0801173
534.185	0.0809963
536.114	0.0818844
538.042	0.0821993
539.971	0.0824698
541.899	0.0832032
543.827	0.0839543
545.756	0.0843484
547.684	0.0849084
549.613	0.08542
551.541	0.0862698
553.47	0.0869285
555.398	0.0870617
557.327	0.0876577
559.255	0.0882725
561.184	0.0886886
563.112	0.0894285
565.041	0.0901274
566.969	0.0910901
568.898	0.0921659
570.826	0.0928217
572.755	0.0928117
574.683	0.0919455
576.611	0.090483
578.54	0.0880926
580.468	0.0852533
582.397	0.0823492
584.325	0.0797276
586.254	0.0776857
588.182	0.0754739
590.111	0.073154
592.039	0.0710104
593.968	0.069029
595.896	0.0669066
597.824	0.0650714
599.753	0.0636362
601.682	0.0622952
603.61	0.0611963
605.538	0.0604644
607.467	0.0608744
609.395	0.062015
611.324	0.0626642
613.252	0.0636114
615.181	0.0653109
617.109	0.0673766
619.038	0.06941
620.966	0.0716368
622.894	0.0745515
624.823	0.0786599
626.751	0.0833053
628.68	0.0873981
630.608	0.0904477
632.537	0.0924951
634.465	0.0932796
636.394	0.0927214
638.322	0.0908006
640.251	0.0880992
642.179	0.0853659
644.108	0.0821855
646.036	0.0788332
647.965	0.076049
649.893	0.0738688
651.822	0.0719323
653.75	0.0700632
655.678	0.0684153
657.607	0.0669603
659.535	0.0659002
661.464	0.0650342
663.392	0.0643164
665.321	0.0637153
667.249	0.062938
669.178	0.0620549
671.106	0.0616443
673.035	0.0615431
674.963	0.0613403
676.892	0.0612523
678.82	0.0613462
680.749	0.061035
682.677	0.0609218
684.606	0.0605086
686.534	0.0599849
688.462	0.0594383
690.391	0.0593207
692.319	0.0601424
694.248	0.0603373
696.176	0.0604018
698.105	0.0603344
700.033	0.0589869
