Measurement: Infrared, Infrared Data Processed
Mineral: Polydymite
Rruff sample: R050609
Ideal chemistry: Ni^2+^Ni^3+^_2_S^2-^_4_
Locality: Dry Nickel mine, Bindura, South Rhodesia, Rhodesia
Source: University of Arizona Mineral Museum
Description: Reddish-bronze tarnished metallic fragment associated with green clinochlore and white actinolite
Measured chemistry: (Ni_0.85_Fe_0.15_)Ni_2.00_S_4.00_
x	intensity
399.193	0.267335
408.835	0.269261
418.477	0.278709
428.12	0.279205
437.762	0.283635
447.404	0.287024
457.047	0.286856
466.689	0.29133
476.331	0.29466
485.974	0.299173
495.616	0.304757
505.258	0.304563
514.901	0.308434
524.543	0.313166
534.185	0.315805
543.828	0.32008
553.47	0.324238
563.112	0.328155
572.755	0.331139
582.397	0.33328
592.039	0.336793
601.682	0.338912
611.324	0.336858
620.966	0.330653
630.609	0.3243
640.251	0.322499
649.893	0.318679
659.536	0.317432
669.178	0.317455
678.82	0.322034
688.463	0.327997
698.105	0.332518
707.747	0.33622
717.39	0.338956
727.032	0.340429
736.674	0.344236
746.317	0.3454
755.959	0.348419
765.601	0.350727
775.244	0.352994
784.886	0.355231
794.528	0.358916
804.171	0.361047
813.813	0.365395
823.455	0.370023
833.098	0.374171
842.74	0.378481
852.382	0.382348
862.025	0.385836
871.667	0.389296
881.309	0.393391
890.952	0.39727
900.594	0.401708
910.236	0.406258
919.879	0.410235
929.521	0.413589
939.163	0.418761
948.806	0.422628
958.448	0.42688
968.09	0.430147
977.733	0.433837
987.375	0.436351
997.017	0.434952
1006.66	0.441533
1016.3	0.445949
1025.94	0.45054
1035.59	0.455828
1045.23	0.46159
1054.87	0.46394
1064.51	0.461937
1074.16	0.455217
1083.8	0.448537
1093.44	0.44535
1103.08	0.440095
1112.72	0.425013
1122.37	0.409962
1132.01	0.401294
1141.65	0.396885
1151.3	0.38806
1160.94	0.369883
1170.58	0.339819
1180.22	0.315125
1189.86	0.314177
1199.51	0.323172
1209.15	0.331524
1218.79	0.338333
1228.43	0.345616
1238.08	0.35365
1247.72	0.36154
1257.36	0.368075
1267	0.374997
1276.64	0.380652
1286.29	0.38641
1295.93	0.391699
1305.57	0.395697
1315.21	0.399306
1324.86	0.403421
1334.5	0.406654
1344.14	0.409718
1353.78	0.412714
1363.43	0.415598
1373.07	0.418402
1382.71	0.420972
1392.35	0.42374
1401.99	0.426017
1411.64	0.428175
1421.28	0.43077
1430.92	0.433478
1440.57	0.434742
1450.21	0.437583
1459.85	0.43908
1469.49	0.44061
1479.13	0.443606
1488.78	0.445987
1498.42	0.448868
1508.06	0.4509
1517.7	0.452531
1527.35	0.453982
1536.99	0.456675
1546.63	0.458811
1556.27	0.461321
1565.91	0.464128
1575.56	0.46666
1585.2	0.469244
1594.84	0.469971
1604.48	0.470921
1614.13	0.469677
1623.77	0.466323
1633.41	0.460916
1643.05	0.457596
1652.7	0.456768
1662.34	0.454255
1671.98	0.452767
1681.62	0.453918
1691.27	0.456405
1700.91	0.459811
1710.55	0.461019
1720.19	0.462447
1729.84	0.465264
1739.48	0.465466
1749.12	0.467827
1758.76	0.469686
1768.4	0.471418
1778.05	0.472957
1787.69	0.474665
1797.33	0.474944
1806.97	0.476142
1816.62	0.477444
1826.26	0.478565
1835.9	0.478717
1845.54	0.479901
1855.18	0.480717
1864.83	0.481407
1874.47	0.482964
1884.11	0.484927
1893.75	0.48448
1903.4	0.484629
1913.04	0.482901
1922.68	0.481969
1932.32	0.481744
1941.97	0.480273
1951.61	0.481878
1961.25	0.475892
1970.89	0.472544
1980.54	0.475761
1990.18	0.477779
1999.82	0.478138
2009.46	0.478211
2019.11	0.478272
2028.75	0.475693
2038.39	0.480784
2048.03	0.4848
2057.67	0.49114
2067.32	0.497345
2076.96	0.497483
2086.6	0.499864
2096.24	0.502508
2105.89	0.501501
2115.53	0.503791
2125.17	0.5029
2134.81	0.497066
2144.45	0.49383
2154.1	0.482578
2163.74	0.492734
2173.38	0.492563
2183.02	0.496769
2192.67	0.503373
2202.31	0.504485
2211.95	0.505779
2221.59	0.507378
2231.24	0.512158
2240.88	0.514004
2250.52	0.514356
2260.16	0.520287
2269.8	0.521804
2279.45	0.524997
2289.09	0.530272
2298.73	0.531342
2308.38	0.532856
2318.02	0.536055
2327.66	0.538731
2337.3	0.53883
2346.94	0.539468
2356.59	0.542212
2366.23	0.543066
2375.87	0.540683
2385.51	0.540792
2395.16	0.540242
2404.8	0.540345
2414.44	0.542374
2424.08	0.541643
2433.72	0.543288
2443.37	0.543861
2453.01	0.545366
2462.65	0.545571
2472.29	0.547267
2481.94	0.546216
2491.58	0.549955
2501.22	0.548991
2510.86	0.550256
2520.51	0.551287
2530.15	0.549273
2539.79	0.553321
2549.43	0.552948
2559.07	0.556184
2568.72	0.558078
2578.36	0.557094
2588	0.55873
2597.64	0.560804
2607.29	0.560427
2616.93	0.563072
2626.57	0.566144
2636.21	0.568111
2645.86	0.569367
2655.5	0.570457
2665.14	0.5727
2674.78	0.572786
2684.43	0.574606
2694.07	0.575412
2703.71	0.576905
2713.35	0.577231
2722.99	0.578977
2732.64	0.579864
2742.28	0.580491
2751.92	0.583424
2761.56	0.582637
2771.21	0.58308
2780.85	0.585049
2790.49	0.584994
2800.13	0.586857
2809.78	0.587186
2819.42	0.58713
2829.06	0.588628
2838.7	0.590972
2848.34	0.592589
2857.99	0.591256
2867.63	0.591911
2877.27	0.593207
2886.91	0.596418
2896.56	0.59567
2906.2	0.596276
2915.84	0.597352
2925.48	0.597733
2935.13	0.598209
2944.77	0.599877
2954.41	0.600342
2964.05	0.601958
2973.7	0.604304
2983.34	0.606237
2992.98	0.606868
3002.62	0.609337
3012.26	0.610496
3021.91	0.610532
3031.55	0.61161
3041.19	0.615534
3050.83	0.613539
3060.48	0.617346
3070.12	0.62206
3079.76	0.618065
3089.4	0.6196
3099.05	0.621086
3108.69	0.623306
3118.33	0.622785
3127.97	0.62648
3137.61	0.628598
3147.26	0.627979
3156.9	0.633011
3166.54	0.633335
3176.18	0.630938
3185.83	0.633453
3195.47	0.636817
3205.11	0.638428
3214.75	0.637286
3224.4	0.636667
3234.04	0.638159
3243.68	0.639747
3253.32	0.640087
3262.97	0.635807
3272.61	0.640641
3282.25	0.636598
3291.89	0.637524
3301.53	0.634065
3311.18	0.635672
3320.82	0.637312
3330.46	0.637942
3340.1	0.639477
3349.75	0.63834
3359.39	0.642153
3369.03	0.634271
3378.67	0.634114
3388.32	0.633627
3397.96	0.635176
3407.6	0.629147
3417.24	0.628239
3426.89	0.627522
3436.53	0.625698
3446.17	0.617428
3455.81	0.612692
3465.45	0.602605
3475.1	0.596722
3484.74	0.585371
3494.38	0.580138
3504.02	0.577027
3513.67	0.576067
3523.31	0.573214
3532.95	0.570973
3542.59	0.562123
3552.24	0.56148
3561.88	0.563325
3571.52	0.560592
3581.16	0.551668
3590.8	0.556658
3600.45	0.551805
3610.09	0.559606
3619.73	0.559418
3629.37	0.568531
3639.02	0.574349
3648.66	0.574511
3658.3	0.579248
3667.94	0.578709
3677.59	0.579067
3687.23	0.584757
3696.87	0.588665
3706.51	0.59038
3716.16	0.593011
3725.8	0.594865
3735.44	0.604141
3745.08	0.597566
3754.72	0.603673
3764.37	0.601795
3774.01	0.60511
3783.65	0.611274
3793.29	0.60874
3802.94	0.61014
3812.58	0.611829
3822.22	0.623432
3831.86	0.613917
3841.51	0.618532
3851.15	0.621079
3860.79	0.618304
3870.43	0.622094
3880.07	0.629686
3889.72	0.61897
3899.36	0.62498
3909	0.623584
3918.64	0.626853
3928.29	0.626578
3937.93	0.632634
3947.57	0.635536
3957.21	0.630151
3966.86	0.634248
3976.5	0.636277
3986.14	0.639051
3995.78	0.640239
