Measurement: Infrared, Infrared Data Processed
Mineral: Polylithionite
Rruff sample: R050132
Ideal chemistry: KLi_2_AlSi_4_O_10_F_2_
Locality: Brown Derby mine, Ohio City, Gunnison County, Colorado, USA
Source: Dave Bunk Minerals
Description: Purple scaly aggregate, polytype 2M1
Measured chemistry: (K_0.90_Rb_0.10_)(Li_0.62_Al_0.38_)_3_(Si_0.93_Al_0.07_)_4_O_10_(F_0.69_(OH)_0.31_)_2_
x	intensity
50.1401	0.00454406
52.0686	0.00489331
53.9971	0.000678326
55.9255	-0.00151475
57.854	0.00158736
59.7825	0.00208901
61.7109	0.00376457
63.6394	0.00543198
65.5679	0.00618465
67.4963	0.00601784
69.4248	0.0070223
71.3533	0.0078172
73.2817	0.00802263
75.2102	0.00807958
77.1387	0.009988
79.0671	0.0109822
80.9956	0.0105157
82.9241	0.0111426
84.8525	0.0130163
86.781	0.013681
88.7095	0.0146041
90.6379	0.0150556
92.5664	0.0155545
94.4948	0.0155528
96.4233	0.0159321
98.3518	0.0161881
100.28	0.0165786
102.209	0.0170109
104.137	0.0171106
106.066	0.0163778
107.994	0.0154679
109.923	0.0140463
111.851	0.0137181
113.779	0.0129923
115.708	0.0121055
117.636	0.0116438
119.565	0.0117852
121.493	0.0117288
123.422	0.0119926
125.35	0.0124093
127.279	0.0127969
129.207	0.0130083
131.136	0.0138277
133.064	0.0142277
134.993	0.014431
136.921	0.0146379
138.85	0.0152625
140.778	0.015327
142.707	0.0150556
144.635	0.0141353
146.563	0.0133168
148.492	0.0135926
150.42	0.0140835
152.349	0.0137815
154.277	0.0134718
156.206	0.0133666
158.134	0.0135325
160.063	0.01331
161.991	0.0139313
163.92	0.0144557
165.848	0.0148492
167.777	0.0151015
169.705	0.0150571
171.633	0.0148147
173.562	0.0150884
175.49	0.0153072
177.419	0.0149977
179.347	0.0152599
181.276	0.0162956
183.204	0.016516
185.133	0.0169076
187.061	0.0177394
188.99	0.018228
190.918	0.0182806
192.847	0.018718
194.775	0.0188857
196.704	0.0189435
198.632	0.0189331
200.56	0.0192404
202.489	0.0196943
204.417	0.0195955
206.346	0.0197776
208.274	0.0203133
210.203	0.0202345
212.131	0.0204874
214.06	0.021074
215.988	0.0214936
217.917	0.0218632
219.845	0.0224099
221.774	0.022701
223.702	0.0231455
225.631	0.023778
227.559	0.0243689
229.488	0.0244746
231.416	0.0248461
233.344	0.0252707
235.273	0.0257165
237.201	0.0262785
239.13	0.0267957
241.058	0.0272712
242.987	0.0280147
244.915	0.0285778
246.844	0.0292285
248.772	0.0297381
250.701	0.0301432
252.629	0.0311671
254.558	0.0322254
256.486	0.0324194
258.414	0.0328225
260.343	0.0332014
262.271	0.0336119
264.2	0.0337117
266.128	0.0339626
268.057	0.0340551
269.985	0.0341429
271.914	0.0341265
273.842	0.0344183
275.771	0.0348591
277.699	0.0354783
279.628	0.0358585
281.556	0.0359754
283.485	0.0360552
285.413	0.0363387
287.341	0.0368219
289.27	0.0372314
291.198	0.0373604
293.127	0.0375932
295.055	0.0381294
296.984	0.0386168
298.912	0.0391885
300.841	0.0401964
302.769	0.0411515
304.698	0.0413693
306.626	0.0415715
308.555	0.0419579
310.483	0.0418048
312.411	0.0416832
314.34	0.0414829
316.269	0.0416141
318.197	0.0416101
320.125	0.0412789
322.054	0.0408794
323.982	0.0408085
325.911	0.0403856
327.839	0.0396719
329.768	0.0391749
331.696	0.0389659
333.625	0.038609
335.553	0.0382932
337.482	0.0380744
339.41	0.0379028
341.339	0.0376876
343.267	0.0375885
345.195	0.0375197
347.124	0.0375796
349.052	0.0379051
350.981	0.0383309
352.909	0.0385409
354.838	0.0385382
356.766	0.0384974
358.695	0.0382381
360.623	0.0378537
362.552	0.0380878
364.48	0.0382693
366.409	0.0382123
368.337	0.0382928
370.265	0.0385552
372.194	0.0387405
374.122	0.0391412
376.051	0.0393444
377.979	0.0394577
379.908	0.0398024
381.836	0.0404071
383.765	0.0408991
385.693	0.041454
387.622	0.0418721
389.55	0.0423912
391.479	0.0430754
393.407	0.0442421
395.336	0.0455088
397.264	0.0466178
399.192	0.0478138
401.121	0.0491212
403.049	0.0503923
404.978	0.0516896
406.906	0.0526915
408.835	0.0535586
410.763	0.0543881
412.692	0.0548689
414.62	0.0551767
416.549	0.0559846
418.477	0.0568612
420.406	0.0575463
422.334	0.0583616
424.262	0.0592217
426.191	0.0604152
428.12	0.061792
430.048	0.0627092
431.976	0.0637693
433.905	0.0649464
435.833	0.0658946
437.762	0.0666117
439.69	0.0669093
441.619	0.0662857
443.547	0.0655449
445.476	0.0650071
447.404	0.0649214
449.333	0.0650319
451.261	0.0657069
453.19	0.0667389
455.118	0.0676975
457.046	0.0694898
458.975	0.0711942
460.903	0.0725212
462.832	0.0741915
464.76	0.075761
466.689	0.0768998
468.617	0.0777884
470.546	0.0779498
472.474	0.0779692
474.403	0.0782541
476.331	0.0784169
478.26	0.0780161
480.188	0.0775794
482.116	0.0765928
484.045	0.0753642
485.974	0.0739517
487.902	0.0720725
489.83	0.0705654
491.759	0.0693208
493.687	0.0679973
495.616	0.0668101
497.544	0.0657452
499.473	0.0646019
501.401	0.0640476
503.33	0.0641582
505.258	0.0640881
507.187	0.0638477
509.115	0.063731
511.043	0.0640879
512.972	0.0646239
514.9	0.0652786
516.829	0.0666704
518.757	0.0681784
520.686	0.0693143
522.614	0.0705232
524.543	0.0718974
526.471	0.0731504
528.4	0.074106
530.328	0.0746117
532.257	0.0749996
534.185	0.0745751
536.114	0.0737733
538.042	0.0728208
539.971	0.0720433
541.899	0.0711579
543.827	0.0697226
545.756	0.0684383
547.684	0.0676944
549.613	0.0672114
551.541	0.0662448
553.47	0.0649326
555.398	0.0638572
557.327	0.0625288
559.255	0.0611489
561.184	0.0598145
563.112	0.0583912
565.041	0.057033
566.969	0.0556716
568.898	0.0543896
570.826	0.0535896
572.755	0.0526151
574.683	0.0518377
576.611	0.0512568
578.54	0.0502421
580.468	0.0489069
582.397	0.047906
584.325	0.0469919
586.254	0.0461726
588.182	0.0446004
590.111	0.0434346
592.039	0.0426421
593.968	0.0415895
595.896	0.0409095
597.824	0.0401638
599.753	0.0392269
601.682	0.0384898
603.61	0.0382467
605.538	0.0381304
607.467	0.0379962
609.395	0.0380646
611.324	0.0380968
613.252	0.0386067
615.181	0.0389386
617.109	0.0391431
619.038	0.0395278
620.966	0.0399169
622.894	0.0392624
624.823	0.0394338
626.751	0.0400529
628.68	0.0410129
630.608	0.0418616
632.537	0.0423207
634.465	0.0424836
636.394	0.0428236
638.322	0.0434105
640.251	0.0437936
642.179	0.0441888
644.108	0.0447617
646.036	0.0453696
647.965	0.0457776
649.893	0.0460634
651.822	0.0465062
653.75	0.046914
655.678	0.047262
657.607	0.0474609
659.535	0.0476711
661.464	0.0479064
663.392	0.0483499
665.321	0.0487652
667.249	0.0495362
669.178	0.0500845
671.106	0.0501565
673.035	0.0503251
674.963	0.0506237
676.892	0.0508027
678.82	0.0512079
680.749	0.0512746
682.677	0.05127
684.606	0.0516257
686.534	0.0518086
688.462	0.0514887
690.391	0.0519256
692.319	0.0527878
694.248	0.0535073
696.176	0.0542187
698.105	0.0545906
700.033	0.0547561
