Measurement: Infrared, Infrared Data Processed
Mineral: Renierite
Rruff sample: R050433
Ideal chemistry: (Cu^1+^,Cu^2+^Zn^2+^)_11_(Fe^2+^,Fe^3+^)_4_(Ge^4+^,As^5+^)_2_S^2-^_16_
Locality: Tsumeb mine, Tsumeb, Otavi District, Oshikoto, Namibia
Source: University of Arizona Mineral Museum
Description: Bronze metallic massive
Measured chemistry: (Cu_10.51_Zn_0.49_)_Σ=11_Fe_4.00_(Ge_1.67_As_0.33_)_Σ=2_S_16_
x	intensity
399.193	0.29617
408.835	0.269481
418.477	0.295419
428.12	0.312149
437.762	0.325548
447.404	0.329977
457.047	0.331574
466.689	0.333915
476.331	0.339566
485.974	0.343096
495.616	0.349015
505.258	0.355586
514.901	0.356736
524.543	0.362334
534.185	0.365356
543.828	0.36943
553.47	0.372806
563.112	0.376303
572.755	0.379448
582.397	0.382757
592.039	0.386344
601.682	0.389303
611.324	0.392173
620.966	0.396215
630.609	0.400692
640.251	0.402855
649.893	0.404707
659.536	0.407243
669.178	0.411009
678.82	0.415318
688.463	0.417859
698.105	0.420975
707.747	0.42304
717.39	0.426174
727.032	0.429598
736.674	0.431562
746.317	0.435778
755.959	0.439141
765.601	0.44288
775.244	0.445034
784.886	0.447657
794.528	0.449368
804.171	0.451603
813.813	0.454313
823.455	0.455629
833.098	0.459762
842.74	0.46196
852.382	0.4671
862.025	0.470158
871.667	0.472045
881.309	0.476503
890.952	0.478443
900.594	0.481571
910.236	0.484232
919.879	0.487305
929.521	0.489778
939.163	0.49277
948.806	0.496146
958.448	0.499338
968.09	0.501863
977.733	0.503911
987.375	0.505732
997.017	0.507964
1006.66	0.51041
1016.3	0.514456
1025.94	0.517012
1035.59	0.519803
1045.23	0.522111
1054.87	0.523502
1064.51	0.523527
1074.16	0.524989
1083.8	0.52611
1093.44	0.527177
1103.08	0.527986
1112.72	0.529892
1122.37	0.53023
1132.01	0.532213
1141.65	0.535961
1151.3	0.535984
1160.94	0.535499
1170.58	0.534681
1180.22	0.535106
1189.86	0.537771
1199.51	0.540107
1209.15	0.542165
1218.79	0.542975
1228.43	0.545043
1238.08	0.547704
1247.72	0.550109
1257.36	0.551245
1267	0.55286
1276.64	0.555395
1286.29	0.557566
1295.93	0.559977
1305.57	0.561806
1315.21	0.563242
1324.86	0.56553
1334.5	0.567656
1344.14	0.56996
1353.78	0.572986
1363.43	0.573958
1373.07	0.575665
1382.71	0.5784
1392.35	0.579592
1401.99	0.581643
1411.64	0.583173
1421.28	0.584217
1430.92	0.585475
1440.57	0.587203
1450.21	0.588736
1459.85	0.589967
1469.49	0.590142
1479.13	0.592022
1488.78	0.593524
1498.42	0.596485
1508.06	0.598611
1517.7	0.600559
1527.35	0.602298
1536.99	0.604646
1546.63	0.605935
1556.27	0.607038
1565.91	0.608829
1575.56	0.610321
1585.2	0.611556
1594.84	0.61377
1604.48	0.614896
1614.13	0.617398
1623.77	0.618541
1633.41	0.621235
1643.05	0.622684
1652.7	0.62343
1662.34	0.623551
1671.98	0.624476
1681.62	0.625016
1691.27	0.625982
1700.91	0.62735
1710.55	0.628873
1720.19	0.631719
1729.84	0.634213
1739.48	0.634974
1749.12	0.634329
1758.76	0.632792
1768.4	0.634138
1778.05	0.63554
1787.69	0.636011
1797.33	0.637847
1806.97	0.638084
1816.62	0.639278
1826.26	0.638613
1835.9	0.637956
1845.54	0.640677
1855.18	0.640369
1864.83	0.640254
1874.47	0.642807
1884.11	0.643313
1893.75	0.644016
1903.4	0.641664
1913.04	0.643169
1922.68	0.641924
1932.32	0.640952
1941.97	0.637008
1951.61	0.634762
1961.25	0.627333
1970.89	0.618289
1980.54	0.625903
1990.18	0.631771
1999.82	0.63198
2009.46	0.627502
2019.11	0.625015
2028.75	0.623416
2038.39	0.632846
2048.03	0.644389
2057.67	0.653678
2067.32	0.65475
2076.96	0.65872
2086.6	0.661507
2096.24	0.661488
2105.89	0.665988
2115.53	0.667148
2125.17	0.66234
2134.81	0.659704
2144.45	0.656713
2154.1	0.640876
2163.74	0.642
2173.38	0.650687
2183.02	0.652732
2192.67	0.660276
2202.31	0.665279
2211.95	0.668158
2221.59	0.670838
2231.24	0.678751
2240.88	0.681217
2250.52	0.683563
2260.16	0.687602
2269.8	0.691477
2279.45	0.697625
2289.09	0.702885
2298.73	0.705916
2308.38	0.708696
2318.02	0.71247
2327.66	0.716364
2337.3	0.718257
2346.94	0.717828
2356.59	0.721263
2366.23	0.721033
2375.87	0.719871
2385.51	0.718233
2395.16	0.719311
2404.8	0.720786
2414.44	0.72143
2424.08	0.719853
2433.72	0.7226
2443.37	0.726308
2453.01	0.727941
2462.65	0.728427
2472.29	0.726766
2481.94	0.729153
2491.58	0.732061
2501.22	0.730878
2510.86	0.735806
2520.51	0.73453
2530.15	0.737849
2539.79	0.739319
2549.43	0.73802
2559.07	0.738214
2568.72	0.741876
2578.36	0.742981
2588	0.74581
2597.64	0.747721
2607.29	0.750082
2616.93	0.752231
2626.57	0.754852
2636.21	0.758641
2645.86	0.760116
2655.5	0.763084
2665.14	0.765737
2674.78	0.765883
2684.43	0.767409
2694.07	0.767799
2703.71	0.767811
2713.35	0.771088
2722.99	0.772656
2732.64	0.773402
2742.28	0.774879
2751.92	0.77635
2761.56	0.776851
2771.21	0.77813
2780.85	0.780169
2790.49	0.780798
2800.13	0.781427
2809.78	0.782947
2819.42	0.783561
2829.06	0.786776
2838.7	0.788835
2848.34	0.792232
2857.99	0.789371
2867.63	0.789965
2877.27	0.791903
2886.91	0.793929
2896.56	0.797192
2906.2	0.801105
2915.84	0.802681
2925.48	0.7967
2935.13	0.791745
2944.77	0.790975
2954.41	0.792038
2964.05	0.794593
2973.7	0.795437
2983.34	0.797286
2992.98	0.796995
3002.62	0.799647
3012.26	0.797401
3021.91	0.798236
3031.55	0.798959
3041.19	0.800773
3050.83	0.800936
3060.48	0.8022
3070.12	0.804913
3079.76	0.803187
3089.4	0.807379
3099.05	0.807199
3108.69	0.808265
3118.33	0.813286
3127.97	0.810997
3137.61	0.813864
3147.26	0.816599
3156.9	0.812773
3166.54	0.818011
3176.18	0.818999
3185.83	0.818535
3195.47	0.821817
3205.11	0.821095
3214.75	0.823745
3224.4	0.82366
3234.04	0.824429
3243.68	0.827684
3253.32	0.827634
3262.97	0.831245
3272.61	0.832009
3282.25	0.833183
3291.89	0.836294
3301.53	0.834789
3311.18	0.834686
3320.82	0.836349
3330.46	0.839147
3340.1	0.843703
3349.75	0.842711
3359.39	0.840592
3369.03	0.83885
3378.67	0.844005
3388.32	0.840814
3397.96	0.841417
3407.6	0.843649
3417.24	0.842804
3426.89	0.83917
3436.53	0.845958
3446.17	0.842984
3455.81	0.849146
3465.45	0.849286
3475.1	0.848909
3484.74	0.849618
3494.38	0.852117
3504.02	0.854874
3513.67	0.848263
3523.31	0.85368
3532.95	0.842915
3542.59	0.85315
3552.24	0.854593
3561.88	0.854717
3571.52	0.856487
3581.16	0.856163
3590.8	0.857332
3600.45	0.85749
3610.09	0.855424
3619.73	0.85869
3629.37	0.863272
3639.02	0.860148
3648.66	0.859805
3658.3	0.868481
3667.94	0.865382
3677.59	0.872344
3687.23	0.871733
3696.87	0.872288
3706.51	0.870273
3716.16	0.872162
3725.8	0.879413
3735.44	0.878915
3745.08	0.880981
3754.72	0.881692
3764.37	0.891344
3774.01	0.889639
3783.65	0.88767
3793.29	0.885297
3802.94	0.884604
3812.58	0.889651
3822.22	0.895468
3831.86	0.890066
3841.51	0.890109
3851.15	0.891887
3860.79	0.893009
3870.43	0.896678
3880.07	0.892001
3889.72	0.90204
3899.36	0.90159
3909	0.898138
3918.64	0.904078
3928.29	0.903889
3937.93	0.902829
3947.57	0.911849
3957.21	0.904207
3966.86	0.912873
3976.5	0.917037
3986.14	0.911567
3995.78	0.911443
