Measurement: Infrared, Infrared Data Processed
Mineral: Rhodonite
Rruff sample: R060363
Ideal chemistry: CaMn^2+^_3_Mn^2+^Si_5_O_15_
Locality: 2600' level, Broken Hill mine, New South Wales, Australia
Source: Herb Obodda
Description: Reddish brown cleavage fragment
Measured chemistry: (Mn_0.75_Fe_0.18_Ca_0.09_)Si_0.99_O_3_
x	intensity
399.193	0
408.835	0.114183
418.477	0.124221
428.12	0.153431
437.762	0.197875
447.404	0.230644
457.047	0.226911
466.689	0.181736
476.331	0.163224
485.974	0.175837
495.616	0.164976
505.258	0.131925
514.901	0.114623
524.543	0.0832818
534.185	0.0773528
543.828	0.0552308
553.47	0.0723959
563.112	0.0863237
572.755	0.0814266
582.397	0.0690764
592.039	0.0338762
601.682	0.0256743
611.324	0.0256877
620.966	0.0272017
630.609	0.030297
640.251	0.0412545
649.893	0.0559462
659.536	0.0752477
669.178	0.0724456
678.82	0.0367516
688.463	0.0361717
698.105	0.0368008
707.747	0.039533
717.39	0.061278
727.032	0.0431115
736.674	0.0328181
746.317	0.0320495
755.959	0.0333731
765.601	0.0378999
775.244	0.0427395
784.886	0.0489894
794.528	0.0561581
804.171	0.0665417
813.813	0.0798291
823.455	0.0974728
833.098	0.121404
842.74	0.154512
852.382	0.194502
862.025	0.243573
871.667	0.267276
881.309	0.278168
890.952	0.285719
900.594	0.265055
910.236	0.25409
919.879	0.24762
929.521	0.239328
939.163	0.2555
948.806	0.258958
958.448	0.203142
968.09	0.167732
977.733	0.162636
987.375	0.168096
997.017	0.175759
1006.66	0.18354
1016.3	0.187852
1025.94	0.179245
1035.59	0.164817
1045.23	0.168916
1054.87	0.168868
1064.51	0.141586
1074.16	0.120079
1083.8	0.104635
1093.44	0.0887167
1103.08	0.0722671
1112.72	0.0562703
1122.37	0.0399193
1132.01	0.0263969
1141.65	0.0179687
1151.3	0.0120558
1160.94	0.00891866
1170.58	0.00754273
1180.22	0.00671176
1189.86	0.00579862
1199.51	0.00505197
1209.15	0.00446576
1218.79	0.00403175
1228.43	0.0035124
1238.08	0.00352498
1247.72	0.00365257
1257.36	0.00333376
1267	0.0031269
1276.64	0.00345786
1286.29	0.00338532
1295.93	0.00329776
1305.57	0.0030824
1315.21	0.00355639
1324.86	0.00321711
1334.5	0.00345638
1344.14	0.00355129
1353.78	0.00340813
1363.43	0.00377789
1373.07	0.00413739
1382.71	0.00451755
1392.35	0.00470727
1401.99	0.00511791
1411.64	0.00481947
1421.28	0.0049211
1430.92	0.00515439
1440.57	0.0051352
1450.21	0.00561794
1459.85	0.00560645
1469.49	0.00568692
1479.13	0.00569879
1488.78	0.00603997
1498.42	0.00582559
1508.06	0.0057483
1517.7	0.00578274
1527.35	0.00603346
1536.99	0.00655704
1546.63	0.00688862
1556.27	0.00719123
1565.91	0.00785659
1575.56	0.00778667
1585.2	0.00824199
1594.84	0.00824156
1604.48	0.00871403
1614.13	0.00886691
1623.77	0.00858548
1633.41	0.00853743
1643.05	0.00882105
1652.7	0.00866505
1662.34	0.00921814
1671.98	0.00926811
1681.62	0.00871739
1691.27	0.00889956
1700.91	0.00895605
1710.55	0.00918638
1720.19	0.0091619
1729.84	0.00865204
1739.48	0.008057
1749.12	0.00795567
1758.76	0.00812448
1768.4	0.00799313
1778.05	0.00784657
1787.69	0.00807548
1797.33	0.00815284
1806.97	0.00792325
1816.62	0.00736876
1826.26	0.00824738
1835.9	0.00812589
1845.54	0.00736339
1855.18	0.008196
1864.83	0.00792341
1874.47	0.00787105
1884.11	0.00764772
1893.75	0.00764194
1903.4	0.00717654
1913.04	0.00861079
1922.68	0.00704234
1932.32	0.00648906
1941.97	0.00751577
1951.61	0.00764627
1961.25	0.00552834
1970.89	0.00577672
1980.54	0.00766323
1990.18	0.00450127
1999.82	0.00499784
2009.46	0.00731574
2019.11	0.00717422
2028.75	0.00330276
2038.39	0.0063818
2048.03	0.00769468
2057.67	0.00895044
2067.32	0.00873938
2076.96	0.0094849
2086.6	0.0080377
2096.24	0.00771863
2105.89	0.0101596
2115.53	0.00852528
2125.17	0.00851831
2134.81	0.00698838
2144.45	0.00854481
2154.1	0.00347461
2163.74	0.00915081
2173.38	0.0108869
2183.02	0.0106424
2192.67	0.0107389
2202.31	0.011329
2211.95	0.011605
2221.59	0.0141427
2231.24	0.0149678
2240.88	0.0147995
2250.52	0.01449
2260.16	0.0152108
2269.8	0.0152337
2279.45	0.0160079
2289.09	0.0166107
2298.73	0.0168301
2308.38	0.0162914
2318.02	0.0168089
2327.66	0.0158595
2337.3	0.0150229
2346.94	0.0147232
2356.59	0.0151577
2366.23	0.0150519
2375.87	0.0151979
2385.51	0.0147071
2395.16	0.0151247
2404.8	0.0153723
2414.44	0.0159871
2424.08	0.0142173
2433.72	0.0162889
2443.37	0.016436
2453.01	0.0158979
2462.65	0.0164234
2472.29	0.0155369
2481.94	0.0158262
2491.58	0.0170872
2501.22	0.0163708
2510.86	0.0169619
2520.51	0.017087
2530.15	0.0165376
2539.79	0.0171555
2549.43	0.0178659
2559.07	0.0175176
2568.72	0.018145
2578.36	0.0174692
2588	0.0175765
2597.64	0.018011
2607.29	0.0183537
2616.93	0.0188003
2626.57	0.0183359
2636.21	0.0191415
2645.86	0.0184982
2655.5	0.0181277
2665.14	0.0183178
2674.78	0.0183247
2684.43	0.0181393
2694.07	0.0179834
2703.71	0.0183192
2713.35	0.0176303
2722.99	0.0193567
2732.64	0.0184873
2742.28	0.0181289
2751.92	0.0192786
2761.56	0.0193442
2771.21	0.0190327
2780.85	0.018803
2790.49	0.019257
2800.13	0.0195039
2809.78	0.0190241
2819.42	0.0198079
2829.06	0.0198254
2838.7	0.0199622
2848.34	0.0194375
2857.99	0.0190273
2867.63	0.0192091
2877.27	0.0199203
2886.91	0.0194938
2896.56	0.0200049
2906.2	0.0190921
2915.84	0.0192867
2925.48	0.018127
2935.13	0.0176342
2944.77	0.019974
2954.41	0.018818
2964.05	0.0195961
2973.7	0.0200652
2983.34	0.0212531
2992.98	0.0209238
3002.62	0.0218787
3012.26	0.0212381
3021.91	0.0215397
3031.55	0.0214716
3041.19	0.0201994
3050.83	0.0212467
3060.48	0.0217924
3070.12	0.0209631
3079.76	0.0223814
3089.4	0.0220781
3099.05	0.0218243
3108.69	0.0239332
3118.33	0.0223946
3127.97	0.0207765
3137.61	0.023772
3147.26	0.0242567
3156.9	0.0244333
3166.54	0.0234708
3176.18	0.0229801
3185.83	0.0239768
3195.47	0.0230487
3205.11	0.0237774
3214.75	0.0240136
3224.4	0.0250372
3234.04	0.0238808
3243.68	0.022648
3253.32	0.0237125
3262.97	0.0229074
3272.61	0.0242818
3282.25	0.0230162
3291.89	0.0217612
3301.53	0.0253626
3311.18	0.0239449
3320.82	0.0249421
3330.46	0.0247909
3340.1	0.026174
3349.75	0.0255777
3359.39	0.0252267
3369.03	0.0253291
3378.67	0.0240063
3388.32	0.0256744
3397.96	0.0248769
3407.6	0.0250313
3417.24	0.025955
3426.89	0.026002
3436.53	0.0261805
3446.17	0.0263743
3455.81	0.0268646
3465.45	0.026447
3475.1	0.0240444
3484.74	0.0272474
3494.38	0.0246743
3504.02	0.0261628
3513.67	0.0245868
3523.31	0.0254282
3532.95	0.0252764
3542.59	0.0278472
3552.24	0.0252141
3561.88	0.0254327
3571.52	0.0247198
3581.16	0.0261366
3590.8	0.0236927
3600.45	0.0253308
3610.09	0.0253649
3619.73	0.0257998
3629.37	0.0251614
3639.02	0.022006
3648.66	0.0246525
3658.3	0.0256391
3667.94	0.0223025
3677.59	0.0277437
3687.23	0.0211201
3696.87	0.023621
3706.51	0.0238132
3716.16	0.0236445
3725.8	0.0270651
3735.44	0.0232082
3745.08	0.0248441
3754.72	0.0257302
3764.37	0.0236163
3774.01	0.027726
3783.65	0.0253171
3793.29	0.0260339
3802.94	0.0264422
3812.58	0.0271644
3822.22	0.0276608
3831.86	0.0256912
3841.51	0.0280586
3851.15	0.0273877
3860.79	0.0252028
3870.43	0.0252456
3880.07	0.0275431
3889.72	0.0262896
3899.36	0.0266683
3909	0.0243946
3918.64	0.0283885
3928.29	0.028348
3937.93	0.0257742
3947.57	0.0268275
3957.21	0.0258401
3966.86	0.0269618
3976.5	0.0257986
3986.14	0.0283013
3995.78	0.0246213
