Measurement: Infrared, Infrared Data Processed
Mineral: Richterite
Rruff sample: R060043
Ideal chemistry: Na(CaNa)Mg_5_Si_8_O_22_(OH)_2_
Locality: Langban, Filipstad, Varmland, Sweden
Source: University of Arizona Mineral Museum
Description: Brown transparent stubby prismatic single crystal associated with calcite
Measured chemistry: (Na_0.45_K_0.25_[box]_0.30_)(Ca_0.78_Na_1.18_Mn_0.04_)_=2_(Mg_4.25_Mn_0.75_)_=5_(Si_0.97_Fe^3+^_0.02_Al_0.01_)_8_O_22_(OH)_2_
x	intensity
399.193	0.360536
408.835	0.370544
418.477	0.32982
428.12	0.345984
437.762	0.378947
447.404	0.336317
457.047	0.321243
466.689	0.289218
476.331	0.245764
485.974	0.22573
495.616	0.22486
505.258	0.208235
514.901	0.16843
524.543	0.150923
534.185	0.128773
543.828	0.102987
553.47	0.0691887
563.112	0.0471259
572.755	0.0370616
582.397	0.0367251
592.039	0.0417864
601.682	0.0416901
611.324	0.0396599
620.966	0.0381461
630.609	0.0402376
640.251	0.0480623
649.893	0.069515
659.536	0.109134
669.178	0.0879878
678.82	0.0527808
688.463	0.0450959
698.105	0.0530494
707.747	0.0551062
717.39	0.0519242
727.032	0.0573084
736.674	0.0859177
746.317	0.106076
755.959	0.0790326
765.601	0.0447546
775.244	0.0374794
784.886	0.0366221
794.528	0.0385307
804.171	0.0443532
813.813	0.0511627
823.455	0.0594095
833.098	0.0742053
842.74	0.0981311
852.382	0.129461
862.025	0.171547
871.667	0.232051
881.309	0.281283
890.952	0.327631
900.594	0.376895
910.236	0.401885
919.879	0.406991
929.521	0.40211
939.163	0.429781
948.806	0.4716
958.448	0.473281
968.09	0.428869
977.733	0.366765
987.375	0.306756
997.017	0.253245
1006.66	0.210136
1016.3	0.17958
1025.94	0.166357
1035.59	0.167493
1045.23	0.167053
1054.87	0.165494
1064.51	0.153524
1074.16	0.139052
1083.8	0.123198
1093.44	0.107527
1103.08	0.0910975
1112.72	0.0682617
1122.37	0.0477681
1132.01	0.0602331
1141.65	0.0910206
1151.3	0.0591228
1160.94	0.025709
1170.58	0.0121552
1180.22	0.00899981
1189.86	0.00748284
1199.51	0.00656097
1209.15	0.0050146
1218.79	0.00431311
1228.43	0.00419741
1238.08	0.00435912
1247.72	0.00413882
1257.36	0.00379841
1267	0.0036578
1276.64	0.00400776
1286.29	0.00393795
1295.93	0.00389746
1305.57	0.00402789
1315.21	0.00406443
1324.86	0.0045847
1334.5	0.00498209
1344.14	0.00550384
1353.78	0.006353
1363.43	0.00780436
1373.07	0.00925117
1382.71	0.0104998
1392.35	0.0125132
1401.99	0.014635
1411.64	0.0168953
1421.28	0.0188203
1430.92	0.0192228
1440.57	0.0192108
1450.21	0.0198611
1459.85	0.0193456
1469.49	0.0179678
1479.13	0.0167274
1488.78	0.015034
1498.42	0.0132454
1508.06	0.0117117
1517.7	0.0101687
1527.35	0.00853434
1536.99	0.00729689
1546.63	0.00665037
1556.27	0.00681996
1565.91	0.00573111
1575.56	0.00628928
1585.2	0.00639118
1594.84	0.00700743
1604.48	0.00645184
1614.13	0.00658481
1623.77	0.006766
1633.41	0.00638343
1643.05	0.00637546
1652.7	0.00570921
1662.34	0.00575848
1671.98	0.00532692
1681.62	0.00607243
1691.27	0.00507639
1700.91	0.00548894
1710.55	0.00540544
1720.19	0.00498381
1729.84	0.0052458
1739.48	0.00496162
1749.12	0.00491802
1758.76	0.0046641
1768.4	0.00411277
1778.05	0.00447285
1787.69	0.00464801
1797.33	0.00350346
1806.97	0.00352509
1816.62	0.00280185
1826.26	0.00325386
1835.9	0.00368467
1845.54	0.00295198
1855.18	0.00295264
1864.83	0.00202647
1874.47	0.00261851
1884.11	0.00250843
1893.75	0.00331894
1903.4	0.00163849
1913.04	0.00293713
1922.68	0.00253198
1932.32	0.00357087
1941.97	0.00447947
1951.61	0.00798318
1961.25	0.00614551
1970.89	0.00374377
1980.54	0.00501597
1990.18	0.00777125
1999.82	0.00916129
2009.46	0.00854131
2019.11	0.00621944
2028.75	0.00419355
2038.39	0.0139083
2048.03	0.00804682
2057.67	0.00489311
2067.32	0.00943687
2076.96	0.00817091
2086.6	0.00811965
2096.24	0.00691279
2105.89	0.00652222
2115.53	0.00696268
2125.17	0.00436278
2134.81	0.0044828
2144.45	0.0055844
2154.1	0.0067446
2163.74	0.0097619
2173.38	0.0106884
2183.02	0.0123295
2192.67	0.0109059
2202.31	0.00767427
2211.95	0.00839768
2221.59	0.00806605
2231.24	0.0138846
2240.88	0.0103893
2250.52	0.0108597
2260.16	0.0094039
2269.8	0.0072719
2279.45	0.010559
2289.09	0.00822976
2298.73	0.00833146
2308.38	0.0089054
2318.02	0.00855661
2327.66	0.00852293
2337.3	0.00896551
2346.94	0.00804677
2356.59	0.00742806
2366.23	0.00692204
2375.87	0.0075901
2385.51	0.0095468
2395.16	0.00825333
2404.8	0.00914788
2414.44	0.00982677
2424.08	0.00820619
2433.72	0.0114197
2443.37	0.00937578
2453.01	0.0105201
2462.65	0.0110939
2472.29	0.0105086
2481.94	0.00944699
2491.58	0.00985526
2501.22	0.0100444
2510.86	0.00980806
2520.51	0.0118275
2530.15	0.0115856
2539.79	0.0117585
2549.43	0.00895625
2559.07	0.00994968
2568.72	0.0132202
2578.36	0.0112897
2588	0.013263
2597.64	0.0127875
2607.29	0.0126549
2616.93	0.0131624
2626.57	0.0133931
2636.21	0.0134327
2645.86	0.0130279
2655.5	0.0134513
2665.14	0.0117914
2674.78	0.0126707
2684.43	0.0123833
2694.07	0.0136329
2703.71	0.0130252
2713.35	0.0129725
2722.99	0.013892
2732.64	0.013254
2742.28	0.0131069
2751.92	0.0134807
2761.56	0.0144302
2771.21	0.0143698
2780.85	0.0143584
2790.49	0.0144969
2800.13	0.0149478
2809.78	0.0145571
2819.42	0.0148399
2829.06	0.015297
2838.7	0.016178
2848.34	0.0170706
2857.99	0.0172789
2867.63	0.0173902
2877.27	0.0182155
2886.91	0.0174894
2896.56	0.016576
2906.2	0.0188231
2915.84	0.0211968
2925.48	0.0235512
2935.13	0.0215154
2944.77	0.0195946
2954.41	0.019917
2964.05	0.0197345
2973.7	0.0197946
2983.34	0.0199598
2992.98	0.0192709
3002.62	0.018412
3012.26	0.0178509
3021.91	0.0185836
3031.55	0.0169278
3041.19	0.0192609
3050.83	0.0198954
3060.48	0.0193645
3070.12	0.0193681
3079.76	0.0190398
3089.4	0.0215933
3099.05	0.0221
3108.69	0.0233528
3118.33	0.0204025
3127.97	0.0197776
3137.61	0.0217094
3147.26	0.0191533
3156.9	0.0226229
3166.54	0.0211338
3176.18	0.0213906
3185.83	0.0201033
3195.47	0.0227817
3205.11	0.0229159
3214.75	0.0219645
3224.4	0.0220259
3234.04	0.0233765
3243.68	0.0226394
3253.32	0.0236694
3262.97	0.0251283
3272.61	0.0225564
3282.25	0.0244584
3291.89	0.023721
3301.53	0.0229679
3311.18	0.0245504
3320.82	0.0254376
3330.46	0.020817
3340.1	0.0218089
3349.75	0.0262514
3359.39	0.0235203
3369.03	0.0207578
3378.67	0.0223079
3388.32	0.0224869
3397.96	0.0246264
3407.6	0.0239258
3417.24	0.0202613
3426.89	0.0238665
3436.53	0.0230131
3446.17	0.0255311
3455.81	0.0231769
3465.45	0.0250304
3475.1	0.0220732
3484.74	0.0237253
3494.38	0.0239362
3504.02	0.0230264
3513.67	0.0224151
3523.31	0.0240927
3532.95	0.0226868
3542.59	0.0187566
3552.24	0.0261204
3561.88	0.0222376
3571.52	0.023189
3581.16	0.0262752
3590.8	0.0266858
3600.45	0.0229541
3610.09	0.021721
3619.73	0.0210461
3629.37	0.0219649
3639.02	0.019843
3648.66	0.0247204
3658.3	0.0171017
3667.94	0.021155
3677.59	0.02423
3687.23	0.0215208
3696.87	0.020678
3706.51	0.0212667
3716.16	0.0223061
3725.8	0.021711
3735.44	0.021
3745.08	0.01357
3754.72	0.0179386
3764.37	0.0158334
3774.01	0.0209915
3783.65	0.0209628
3793.29	0.0145602
3802.94	0.0148472
3812.58	0.0197371
3822.22	0.0208106
3831.86	0.0183526
3841.51	0.0182988
3851.15	0.0219523
3860.79	0.0163413
3870.43	0.0184773
3880.07	0.020088
3889.72	0.0154412
3899.36	0.0171085
3909	0.0183813
3918.64	0.0176407
3928.29	0.0118334
3937.93	0.019578
3947.57	0.0159365
3957.21	0.0164341
3966.86	0.0197185
3976.5	0.0176942
3986.14	0.0146904
3995.78	0.0178677
