Measurement: Infrared, Infrared Data Processed
Mineral: Salesite
Rruff sample: R050170
Ideal chemistry: Cu^2+^(I^5+^O_3_)(OH)
Locality: Chuquicamata, Chile
Source: Marcus Origlieri
Description: Green crystalline crust
x	intensity
374.123	0.0770912
383.765	0.0546233
393.407	0.0619136
403.05	0.080872
412.692	0.101762
422.334	0.120804
431.976	0.137205
441.619	0.145301
451.261	0.141616
460.904	0.143463
470.546	0.140128
480.188	0.132005
489.83	0.132486
499.473	0.109374
509.115	0.0913672
518.758	0.0777971
528.4	0.0792725
538.042	0.0855284
547.684	0.0900853
557.327	0.0945333
566.969	0.096419
576.611	0.100068
586.254	0.105967
595.896	0.113768
605.538	0.12082
615.181	0.126686
624.823	0.135891
634.466	0.142803
644.108	0.148787
653.75	0.154093
663.393	0.15108
673.035	0.141907
682.677	0.133348
692.319	0.117838
701.962	0.0901255
711.604	0.0766859
721.246	0.0706679
730.889	0.0694446
740.531	0.0704401
750.173	0.0757727
759.816	0.0735324
769.458	0.105584
779.101	0.124175
788.743	0.0799676
798.385	0.0593559
808.028	0.0421174
817.67	0.0301777
827.312	0.0284167
836.955	0.0264908
846.597	0.0254963
856.239	0.0251863
865.881	0.0270769
875.524	0.030516
885.166	0.0340594
894.808	0.0370493
904.451	0.0418902
914.093	0.0474485
923.736	0.0528057
933.378	0.0618354
943.02	0.0774983
952.663	0.0989499
962.305	0.0952894
971.947	0.0716277
981.59	0.0664004
991.232	0.0658632
1000.87	0.066508
1010.52	0.066859
1020.16	0.0646109
1029.8	0.0623778
1039.44	0.0588337
1049.09	0.0548061
1058.73	0.0535768
1068.37	0.0543104
1078.01	0.0554368
1087.65	0.052998
1097.3	0.0512754
1106.94	0.0482961
1116.58	0.0455674
1126.22	0.0437942
1135.87	0.042583
1145.51	0.0430348
1155.15	0.044331
1164.79	0.0421495
1174.44	0.0400478
1184.08	0.0409941
1193.72	0.0394477
1203.36	0.0364524
1213.01	0.0376416
1222.65	0.0380035
1232.29	0.0370575
1241.93	0.0361703
1251.58	0.0346714
1261.22	0.0329334
1270.86	0.0323194
1280.5	0.0324802
1290.14	0.0334635
1299.79	0.0336542
1309.43	0.0344945
1319.07	0.0351259
1328.71	0.0360827
1338.36	0.0372483
1348	0.0385234
1357.64	0.0401037
1367.28	0.0415845
1376.92	0.0417007
1386.57	0.0427505
1396.21	0.0435423
1405.85	0.0449184
1415.49	0.045659
1425.14	0.0463579
1434.78	0.0473198
1444.42	0.0487542
1454.06	0.0490656
1463.71	0.048779
1473.35	0.0472013
1482.99	0.046343
1492.63	0.0480824
1502.28	0.0510622
1511.92	0.0491811
1521.56	0.0487615
1531.2	0.0489386
1540.85	0.0507302
1550.49	0.0521115
1560.13	0.0531315
1569.77	0.0519694
1579.41	0.052431
1589.06	0.0532273
1598.7	0.0537973
1608.34	0.0546396
1617.98	0.056092
1627.63	0.056759
1637.27	0.057543
1646.91	0.0581999
1656.55	0.0586518
1666.19	0.0589144
1675.84	0.0595055
1685.48	0.0607694
1695.12	0.0614
1704.77	0.0623461
1714.41	0.0642443
1724.05	0.0687859
1733.69	0.0727185
1743.33	0.0671643
1752.98	0.0638525
1762.62	0.0669781
1772.26	0.0688472
1781.9	0.0675243
1791.55	0.0654927
1801.19	0.0646612
1810.83	0.0649871
1820.47	0.0658139
1830.12	0.0667455
1839.76	0.0670581
1849.4	0.0681433
1859.04	0.0697729
1868.68	0.0707529
1878.33	0.0724011
1887.97	0.0740411
1897.61	0.076684
1907.25	0.0796023
1916.9	0.0802196
1926.54	0.0769601
1936.18	0.0753732
1945.82	0.0746219
1955.46	0.0739303
1965.11	0.0746038
1974.75	0.0751224
1984.39	0.0761561
1994.04	0.0751265
2003.68	0.0743952
2013.32	0.0771419
2022.96	0.0763264
2032.6	0.0782473
2042.25	0.0783851
2051.89	0.0798841
2061.53	0.0783965
2071.17	0.0788622
2080.82	0.0789965
2090.46	0.079426
2100.1	0.079936
2109.74	0.0807137
2119.39	0.0807131
2129.03	0.0808782
2138.67	0.081684
2148.31	0.0822538
2157.95	0.0819984
2167.6	0.086177
2177.24	0.0845071
2186.88	0.0857783
2196.52	0.0859171
2206.17	0.0869382
2215.81	0.0864259
2225.45	0.086831
2235.09	0.088451
2244.74	0.0888603
2254.38	0.0899339
2264.02	0.0891452
2273.66	0.0900673
2283.3	0.091075
2292.95	0.0912594
2302.59	0.0912018
2312.23	0.0915703
2321.87	0.0935291
2331.52	0.0927484
2341.16	0.0932075
2350.8	0.0930721
2360.44	0.0942167
2370.09	0.0940944
2379.73	0.0938843
2389.37	0.0944013
2399.01	0.0945816
2408.66	0.0958194
2418.3	0.0957698
2427.94	0.0961024
2437.58	0.0961297
2447.22	0.0975661
2456.87	0.0977319
2466.51	0.0981351
2476.15	0.0982058
2485.79	0.0991166
2495.44	0.0996352
2505.08	0.100052
2514.72	0.100361
2524.36	0.101011
2534.01	0.101683
2543.65	0.102511
2553.29	0.103
2562.93	0.104712
2572.57	0.104588
2582.22	0.105244
2591.86	0.105492
2601.5	0.106247
2611.14	0.106892
2620.79	0.108173
2630.43	0.108276
2640.07	0.109163
2649.71	0.109375
2659.36	0.11018
2669	0.11025
2678.64	0.110646
2688.28	0.111506
2697.93	0.112288
2707.57	0.112988
2717.21	0.113822
2726.85	0.11412
2736.49	0.114685
2746.14	0.115402
2755.78	0.116259
2765.42	0.117184
2775.06	0.117337
2784.71	0.118365
2794.35	0.119185
2803.99	0.119835
2813.63	0.121053
2823.28	0.122223
2832.92	0.123668
2842.56	0.125907
2852.2	0.126992
2861.84	0.129263
2871.49	0.130399
2881.13	0.130781
2890.77	0.132029
2900.41	0.134077
2910.06	0.135816
2919.7	0.136843
2929.34	0.138544
2938.98	0.138392
2948.62	0.140721
2958.27	0.142769
2967.91	0.141318
2977.55	0.138437
2987.2	0.137965
2996.84	0.138377
3006.48	0.139906
3016.12	0.141228
3025.76	0.143103
3035.41	0.145477
3045.05	0.147261
3054.69	0.149566
3064.33	0.1515
3073.98	0.153966
3083.62	0.155831
3093.26	0.158803
3102.9	0.161063
3112.55	0.16393
3122.19	0.165832
3131.83	0.168097
3141.47	0.170469
3151.11	0.174641
3160.76	0.178072
3170.4	0.18213
3180.04	0.185369
3189.68	0.18967
3199.33	0.194421
3208.97	0.198794
3218.61	0.202333
3228.25	0.205949
3237.9	0.210612
3247.54	0.21439
3257.18	0.218846
3266.82	0.222443
3276.47	0.225756
3286.11	0.229791
3295.75	0.234649
3305.39	0.24391
3315.03	0.255216
3324.68	0.269153
3334.32	0.262809
3343.96	0.233583
3353.6	0.21176
3363.25	0.19833
3372.89	0.187694
3382.53	0.179964
3392.17	0.172301
3401.82	0.162096
3411.46	0.154741
3421.1	0.148385
3430.74	0.143828
3440.39	0.138523
3450.03	0.133902
3459.67	0.129188
3469.31	0.125666
3478.95	0.12262
3488.6	0.12097
3498.24	0.119319
3507.88	0.11809
3517.52	0.116982
3527.17	0.115688
3536.81	0.116073
3546.45	0.116016
3556.09	0.115629
3565.74	0.116168
3575.38	0.114235
3585.02	0.11586
3594.66	0.116019
3604.3	0.117804
3613.95	0.120029
3623.59	0.119424
3633.23	0.120132
3642.87	0.118015
3652.52	0.119212
3662.16	0.118473
3671.8	0.116787
3681.44	0.117112
3691.09	0.118176
3700.73	0.119232
3710.37	0.119407
3720.01	0.120441
3729.66	0.121475
3739.3	0.121295
3748.94	0.123208
3758.58	0.122244
3768.22	0.124092
3777.87	0.123206
3787.51	0.12407
3797.15	0.124809
3806.79	0.126215
3816.44	0.126477
3826.08	0.126159
3835.72	0.127408
3845.36	0.127186
3855.01	0.129018
3864.65	0.128958
3874.29	0.128874
3883.93	0.128608
3893.57	0.128318
3903.22	0.13007
3912.86	0.130255
3922.5	0.130967
3932.14	0.130323
3941.79	0.131994
3951.43	0.13233
3961.07	0.134384
3970.71	0.133796
3980.36	0.133853
3990	0.134384
3999.64	0.13453
