Measurement: Infrared, Infrared Data Processed
Mineral: Scolecite
Rruff sample: R050083
Ideal chemistry: Ca(Si_3_Al_2_)O_10_3H_2_O
Locality: near Ahmednagar, Maharashtra, India
Source: Rock Currier
Description: Colorless acicular single crystals associated with fluorapophyllite
Measured chemistry: (Ca_.992_Na_.008_)[Al_2_Si_3_O_10_]Â·3H_2_O
x	intensity
399.193	0
408.835	0.160344
418.477	0.157358
428.12	0.168664
437.762	0.124263
447.404	0.103606
457.047	0.0893408
466.689	0.0840168
476.331	0.0981941
485.974	0.114134
495.616	0.112262
505.258	0.099464
514.901	0.089383
524.543	0.0821666
534.185	0.0725167
543.828	0.065951
553.47	0.0679367
563.112	0.0779233
572.755	0.0867818
582.397	0.0939417
592.039	0.102941
601.682	0.106211
611.324	0.103086
620.966	0.114022
630.609	0.112274
640.251	0.0926818
649.893	0.0750675
659.536	0.0740708
669.178	0.0820767
678.82	0.0816362
688.463	0.0937213
698.105	0.07563
707.747	0.0660725
717.39	0.0773796
727.032	0.0633468
736.674	0.0359256
746.317	0.0221257
755.959	0.0184982
765.601	0.0175501
775.244	0.0169941
784.886	0.0163218
794.528	0.0163988
804.171	0.0173166
813.813	0.0186921
823.455	0.0208243
833.098	0.023756
842.74	0.0272651
852.382	0.0324023
862.025	0.0387677
871.667	0.0472009
881.309	0.0593461
890.952	0.0753794
900.594	0.102023
910.236	0.142422
919.879	0.203514
929.521	0.244739
939.163	0.185153
948.806	0.222967
958.448	0.208118
968.09	0.181499
977.733	0.230994
987.375	0.272508
997.017	0.181055
1006.66	0.195697
1016.3	0.208526
1025.94	0.179514
1035.59	0.147375
1045.23	0.125113
1054.87	0.0978551
1064.51	0.0905242
1074.16	0.0773091
1083.8	0.0648034
1093.44	0.0900486
1103.08	0.102434
1112.72	0.0781
1122.37	0.0477183
1132.01	0.0293761
1141.65	0.0206437
1151.3	0.0162878
1160.94	0.0137641
1170.58	0.0116845
1180.22	0.0102607
1189.86	0.00885083
1199.51	0.00735378
1209.15	0.00638183
1218.79	0.00540706
1228.43	0.00491243
1238.08	0.0043824
1247.72	0.00378001
1257.36	0.00336546
1267	0.00308178
1276.64	0.00272484
1286.29	0.00283232
1295.93	0.00253715
1305.57	0.0026463
1315.21	0.00235881
1324.86	0.00208506
1334.5	0.00229199
1344.14	0.0022647
1353.78	0.00224363
1363.43	0.00210283
1373.07	0.00210251
1382.71	0.00216911
1392.35	0.00222656
1401.99	0.00222962
1411.64	0.00237429
1421.28	0.00241574
1430.92	0.00239518
1440.57	0.00247787
1450.21	0.0024568
1459.85	0.00231137
1469.49	0.00241228
1479.13	0.00279585
1488.78	0.00280201
1498.42	0.00274141
1508.06	0.00258377
1517.7	0.00270061
1527.35	0.00304399
1536.99	0.00309925
1546.63	0.00404895
1556.27	0.00455331
1565.91	0.00605235
1575.56	0.00800987
1585.2	0.0107761
1594.84	0.00945216
1604.48	0.00721794
1614.13	0.00684214
1623.77	0.0076645
1633.41	0.0112717
1643.05	0.0272288
1652.7	0.0271192
1662.34	0.0375927
1671.98	0.0163103
1681.62	0.00574275
1691.27	0.00401788
1700.91	0.00280144
1710.55	0.00259219
1720.19	0.00248404
1729.84	0.00203579
1739.48	0.0018154
1749.12	0.00184049
1758.76	0.00142853
1768.4	0.00148167
1778.05	0.00103601
1787.69	0.00144618
1797.33	0.00170898
1806.97	0.000951
1816.62	0.000496873
1826.26	0.000387831
1835.9	-0.000165242
1845.54	-0.000621798
1855.18	-0.00081233
1864.83	-0.000627767
1874.47	-0.00110857
1884.11	-0.00158277
1893.75	-0.0018439
1903.4	-0.00229905
1913.04	-0.00248282
1922.68	-0.0026414
1932.32	-0.00310102
1941.97	-0.004087
1951.61	-0.00454078
1961.25	-0.00888773
1970.89	-0.00916846
1980.54	-0.00536816
1990.18	-0.00565186
1999.82	-0.00575991
2009.46	-0.00486903
2019.11	-0.00787368
2028.75	-0.00649239
2038.39	-0.00734907
2048.03	-0.00292799
2057.67	-0.00330925
2067.32	-0.00272984
2076.96	-0.000768775
2086.6	-0.00134711
2096.24	-0.00139065
2105.89	-0.000238258
2115.53	0.000281895
2125.17	-0.00178599
2134.81	-0.00360142
2144.45	-0.0043151
2154.1	-0.0056164
2163.74	-0.00172489
2173.38	-0.00144121
2183.02	-0.0011081
2192.67	-0.000919947
2202.31	8.31681e-05
2211.95	-7.16972e-05
2221.59	-0.000749752
2231.24	9.19962e-05
2240.88	0.00422624
2250.52	0.00386976
2260.16	0.00279302
2269.8	0.00381297
2279.45	0.00473409
2289.09	0.0050164
2298.73	0.00493504
2308.38	0.00459276
2318.02	0.00419463
2327.66	0.00335323
2337.3	0.00353957
2346.94	0.00241821
2356.59	0.00280976
2366.23	0.00157771
2375.87	0.00247886
2385.51	0.00223694
2395.16	0.0028495
2404.8	0.00282322
2414.44	0.00280125
2424.08	0.003572
2433.72	0.00231655
2443.37	0.00307204
2453.01	0.00311954
2462.65	0.00235153
2472.29	0.00328268
2481.94	0.00335438
2491.58	0.0030521
2501.22	0.00348188
2510.86	0.00342044
2520.51	0.0029219
2530.15	0.00290988
2539.79	0.00291034
2549.43	0.00432035
2559.07	0.00339562
2568.72	0.00354912
2578.36	0.00453869
2588	0.00455593
2597.64	0.00448744
2607.29	0.00366022
2616.93	0.00456559
2626.57	0.00493994
2636.21	0.00510968
2645.86	0.00461544
2655.5	0.00528167
2665.14	0.00415321
2674.78	0.00400006
2684.43	0.00413819
2694.07	0.00384081
2703.71	0.00387074
2713.35	0.00385812
2722.99	0.00376873
2732.64	0.00392369
2742.28	0.00412781
2751.92	0.00466344
2761.56	0.00440552
2771.21	0.00508537
2780.85	0.00370351
2790.49	0.00506589
2800.13	0.0050247
2809.78	0.00502686
2819.42	0.00481712
2829.06	0.00537201
2838.7	0.00504017
2848.34	0.0045757
2857.99	0.00473425
2867.63	0.00556312
2877.27	0.00564389
2886.91	0.00557037
2896.56	0.00505608
2906.2	0.00565294
2915.84	0.00465641
2925.48	0.00444271
2935.13	0.00498046
2944.77	0.00586588
2954.41	0.00627143
2964.05	0.00782709
2973.7	0.0075321
2983.34	0.00753465
2992.98	0.0081262
3002.62	0.00888531
3012.26	0.0093394
3021.91	0.0100159
3031.55	0.0111339
3041.19	0.0118566
3050.83	0.0119777
3060.48	0.0124773
3070.12	0.0131492
3079.76	0.0137677
3089.4	0.0132465
3099.05	0.0146996
3108.69	0.0160844
3118.33	0.018072
3127.97	0.0177007
3137.61	0.0199811
3147.26	0.0197688
3156.9	0.019939
3166.54	0.022502
3176.18	0.0240055
3185.83	0.0272125
3195.47	0.0313177
3205.11	0.0408236
3214.75	0.0503425
3224.4	0.0602926
3234.04	0.057505
3243.68	0.0444881
3253.32	0.0327983
3262.97	0.0279706
3272.61	0.0254065
3282.25	0.0232556
3291.89	0.0253407
3301.53	0.0298991
3311.18	0.0337975
3320.82	0.0375991
3330.46	0.0356067
3340.1	0.0318743
3349.75	0.0301071
3359.39	0.0295345
3369.03	0.0298772
3378.67	0.0353624
3388.32	0.0404234
3397.96	0.0470893
3407.6	0.0501104
3417.24	0.0429206
3426.89	0.0366824
3436.53	0.0328729
3446.17	0.0263353
3455.81	0.0256024
3465.45	0.0253899
3475.1	0.0276711
3484.74	0.033444
3494.38	0.0425828
3504.02	0.0494174
3513.67	0.0400561
3523.31	0.0287133
3532.95	0.022734
3542.59	0.019226
3552.24	0.0195903
3561.88	0.0249394
3571.52	0.0342647
3581.16	0.0371899
3590.8	0.0298341
3600.45	0.0185056
3610.09	0.0102813
3619.73	0.00628397
3629.37	0.00357553
3639.02	0.00246104
3648.66	0.000433992
3658.3	-0.00146809
3667.94	-0.00178311
3677.59	-0.00217422
3687.23	-0.0026202
3696.87	-0.00244042
3706.51	-0.00405843
3716.16	-0.00193856
3725.8	-0.00209198
3735.44	-0.00282628
3745.08	-0.00343219
3754.72	-0.00217161
3764.37	-0.00197104
3774.01	-0.00390791
3783.65	-0.00358478
3793.29	-0.00136156
3802.94	-0.00266707
3812.58	-0.000138006
3822.22	-0.00243047
3831.86	-0.00184957
3841.51	-0.00124201
3851.15	-0.00400212
3860.79	-0.00245189
3870.43	-0.003197
3880.07	-0.00263984
3889.72	-0.00222866
3899.36	-0.00181602
3909	-0.00139742
3918.64	-0.00324523
3928.29	-0.00379578
3937.93	-0.00173181
3947.57	-0.00265344
3957.21	-0.00329651
3966.86	-0.00066943
3976.5	-0.00124084
3986.14	-0.00183985
3995.78	-0.00103617
