Measurement: Infrared, Infrared Data Processed
Mineral: Serandite
Rruff sample: R040056
Ideal chemistry: NaMn^2+^_2_Si_3_O_8_(OH)
Locality: Mont Saint-Hilaire, Rouville County, Quebec, Canada
Source: Bob Downs
Description: Pink prismatic crystals
Measured chemistry: Na_1.01_Mn^2+^_1.93_Ca_0.05_Si_3.00_O_8_(OH)
x	intensity
399.193	0
408.835	0.27701
418.477	0.276077
428.12	0.288608
437.762	0.333635
447.404	0.329923
457.047	0.296573
466.689	0.289392
476.331	0.235671
485.974	0.174766
495.616	0.13709
505.258	0.121584
514.901	0.143245
524.543	0.161795
534.185	0.147166
543.828	0.118313
553.47	0.100217
563.112	0.0890879
572.755	0.087647
582.397	0.0901626
592.039	0.0808302
601.682	0.0697516
611.324	0.070292
620.966	0.0747338
630.609	0.0855716
640.251	0.111091
649.893	0.152583
659.536	0.128809
669.178	0.100185
678.82	0.117623
688.463	0.112584
698.105	0.0782655
707.747	0.0790432
717.39	0.0669219
727.032	0.0643635
736.674	0.0679852
746.317	0.0735034
755.959	0.0798863
765.601	0.0878549
775.244	0.0967849
784.886	0.105812
794.528	0.110172
804.171	0.116299
813.813	0.123957
823.455	0.132355
833.098	0.141338
842.74	0.153217
852.382	0.168164
862.025	0.191229
871.667	0.22928
881.309	0.287287
890.952	0.376332
900.594	0.457247
910.236	0.440565
919.879	0.401954
929.521	0.3667
939.163	0.322303
948.806	0.323771
958.448	0.363206
968.09	0.346582
977.733	0.352943
987.375	0.399275
997.017	0.366374
1006.66	0.317358
1016.3	0.293315
1025.94	0.2815
1035.59	0.267933
1045.23	0.245487
1054.87	0.215954
1064.51	0.184611
1074.16	0.155815
1083.8	0.134207
1093.44	0.125876
1103.08	0.115854
1112.72	0.107415
1122.37	0.0985185
1132.01	0.0847923
1141.65	0.0674311
1151.3	0.0458098
1160.94	0.032642
1170.58	0.0269898
1180.22	0.0245833
1189.86	0.0223922
1199.51	0.0206689
1209.15	0.0188277
1218.79	0.0168769
1228.43	0.0155977
1238.08	0.0152649
1247.72	0.0153739
1257.36	0.015777
1267	0.0161264
1276.64	0.0170227
1286.29	0.0175203
1295.93	0.0185573
1305.57	0.0194045
1315.21	0.0206547
1324.86	0.0218423
1334.5	0.0236416
1344.14	0.025744
1353.78	0.0286444
1363.43	0.0313522
1373.07	0.0346332
1382.71	0.0381453
1392.35	0.0400749
1401.99	0.0379792
1411.64	0.0335782
1421.28	0.0294847
1430.92	0.0263254
1440.57	0.0237764
1450.21	0.0224326
1459.85	0.0216712
1469.49	0.0205798
1479.13	0.0203283
1488.78	0.0198773
1498.42	0.01956
1508.06	0.0203271
1517.7	0.0202693
1527.35	0.0209469
1536.99	0.0212353
1546.63	0.0242682
1556.27	0.0245111
1565.91	0.0271962
1575.56	0.0267356
1585.2	0.0286331
1594.84	0.0291154
1604.48	0.0279926
1614.13	0.0265419
1623.77	0.0260656
1633.41	0.0243649
1643.05	0.0239016
1652.7	0.0212605
1662.34	0.0218924
1671.98	0.020956
1681.62	0.0184711
1691.27	0.0181028
1700.91	0.0180765
1710.55	0.0169941
1720.19	0.0152763
1729.84	0.0142422
1739.48	0.0119849
1749.12	0.0128678
1758.76	0.0131984
1768.4	0.0135227
1778.05	0.0131447
1787.69	0.0130127
1797.33	0.0127859
1806.97	0.0126326
1816.62	0.0116498
1826.26	0.0117863
1835.9	0.0112824
1845.54	0.0111861
1855.18	0.0100812
1864.83	0.00927508
1874.47	0.00944199
1884.11	0.00917399
1893.75	0.00819776
1903.4	0.00720469
1913.04	0.00627756
1922.68	0.00554329
1932.32	0.00482983
1941.97	0.00277511
1951.61	0.00364657
1961.25	9.09614e-05
1970.89	-0.00252837
1980.54	-0.00255013
1990.18	-0.00191892
1999.82	-0.0013486
2009.46	-0.00307608
2019.11	-0.00208621
2028.75	-0.00459531
2038.39	-0.00321992
2048.03	0.000540093
2057.67	0.000413334
2067.32	0.000939247
2076.96	0.00152536
2086.6	0.00213153
2096.24	0.00155159
2105.89	0.00140561
2115.53	0.00222472
2125.17	0.0013053
2134.81	0.000842778
2144.45	-0.00153929
2154.1	-0.00481542
2163.74	-0.000780497
2173.38	-0.00120862
2183.02	0.000903981
2192.67	0.00107001
2202.31	0.00170326
2211.95	0.00260913
2221.59	0.00208068
2231.24	0.00373069
2240.88	0.00475209
2250.52	0.00424882
2260.16	0.00562483
2269.8	0.00648435
2279.45	0.0074983
2289.09	0.0086
2298.73	0.00815795
2308.38	0.00880826
2318.02	0.0097118
2327.66	0.00898066
2337.3	0.00912183
2346.94	0.00873342
2356.59	0.00884532
2366.23	0.00729351
2375.87	0.00825687
2385.51	0.00809818
2395.16	0.00701828
2404.8	0.00808583
2414.44	0.0073734
2424.08	0.00705545
2433.72	0.00760856
2443.37	0.00676487
2453.01	0.00683348
2462.65	0.00701087
2472.29	0.00670776
2481.94	0.00564897
2491.58	0.00706735
2501.22	0.00625207
2510.86	0.00607342
2520.51	0.00428293
2530.15	0.00645574
2539.79	0.00562485
2549.43	0.00578256
2559.07	0.00544094
2568.72	0.00510957
2578.36	0.00652307
2588	0.00471352
2597.64	0.00592994
2607.29	0.00552758
2616.93	0.00577602
2626.57	0.00588503
2636.21	0.00651801
2645.86	0.00604146
2655.5	0.00707901
2665.14	0.00660977
2674.78	0.00683358
2684.43	0.00585552
2694.07	0.00683591
2703.71	0.00652758
2713.35	0.00635221
2722.99	0.00643392
2732.64	0.00737088
2742.28	0.0063687
2751.92	0.00730159
2761.56	0.00721278
2771.21	0.00726904
2780.85	0.00824943
2790.49	0.00790366
2800.13	0.00782323
2809.78	0.00697486
2819.42	0.00876461
2829.06	0.0091087
2838.7	0.0080228
2848.34	0.00816521
2857.99	0.00811933
2867.63	0.00880929
2877.27	0.00932183
2886.91	0.00905929
2896.56	0.00830924
2906.2	0.0090075
2915.84	0.00793735
2925.48	0.00959982
2935.13	0.00923686
2944.77	0.00967095
2954.41	0.00895363
2964.05	0.00838115
2973.7	0.00937322
2983.34	0.0117711
2992.98	0.0100335
3002.62	0.0108414
3012.26	0.0111144
3021.91	0.0110035
3031.55	0.0106879
3041.19	0.0102692
3050.83	0.0105548
3060.48	0.010316
3070.12	0.0115852
3079.76	0.0116392
3089.4	0.0118032
3099.05	0.0125178
3108.69	0.0116749
3118.33	0.012742
3127.97	0.0124395
3137.61	0.0133093
3147.26	0.0139297
3156.9	0.0139246
3166.54	0.0127076
3176.18	0.01415
3185.83	0.0151334
3195.47	0.0149259
3205.11	0.0147598
3214.75	0.016606
3224.4	0.0151458
3234.04	0.0155148
3243.68	0.0134953
3253.32	0.0150405
3262.97	0.0162339
3272.61	0.0172167
3282.25	0.0171735
3291.89	0.0159116
3301.53	0.0166231
3311.18	0.0172226
3320.82	0.01601
3330.46	0.0171582
3340.1	0.0190926
3349.75	0.017888
3359.39	0.0166687
3369.03	0.0169776
3378.67	0.0183045
3388.32	0.0179668
3397.96	0.0185473
3407.6	0.0175164
3417.24	0.0168201
3426.89	0.0178819
3436.53	0.0193756
3446.17	0.0170156
3455.81	0.0175375
3465.45	0.018371
3475.1	0.0172073
3484.74	0.0181229
3494.38	0.0153541
3504.02	0.0147372
3513.67	0.0151261
3523.31	0.0135148
3532.95	0.0123191
3542.59	0.0122542
3552.24	0.0143573
3561.88	0.0137025
3571.52	0.01319
3581.16	0.0125859
3590.8	0.0122098
3600.45	0.0123012
3610.09	0.009578
3619.73	0.0094347
3629.37	0.00571469
3639.02	0.00545458
3648.66	0.00421107
3658.3	0.0044079
3667.94	-0.000715735
3677.59	0.00114532
3687.23	0.000457419
3696.87	0.000612056
3706.51	0.00106368
3716.16	0.00385925
3725.8	0.00119847
3735.44	-0.00247612
3745.08	-0.00102253
3754.72	0.00192099
3764.37	0.00300875
3774.01	0.00351903
3783.65	0.00387437
3793.29	0.0045726
3802.94	0.00275625
3812.58	-0.00156739
3822.22	0.00389837
3831.86	0.000576119
3841.51	0.00259389
3851.15	0.00118494
3860.79	0.00214414
3870.43	0.00359986
3880.07	-0.000802085
3889.72	0.00686112
3899.36	0.0025018
3909	0.00366208
3918.64	0.0052336
3928.29	0.00454924
3937.93	0.00197115
3947.57	0.00377911
3957.21	0.0063123
3966.86	0.0040693
3976.5	-0.000187744
3986.14	0.00641063
3995.78	0.00686042
