Measurement: Infrared, Infrared Data Processed
Mineral: Silicon
Rruff sample: R050145
Ideal chemistry: Si
Locality: synthetic from Dupont
Source: Gerry Gibbs
Description: Dark gray synthetic fragment
Measured chemistry: Si
x	intensity
50.1401	0.0334669
52.0686	0.0346123
53.9971	0.0301788
55.9255	0.0294736
57.854	0.0351076
59.7825	0.0452382
61.7109	0.0374648
63.6394	0.0407575
65.5679	0.040417
67.4963	0.043119
69.4248	0.0438408
71.3533	0.0496446
73.2817	0.0497072
75.2102	0.0514563
77.1387	0.0499932
79.0671	0.0517904
80.9956	0.0501714
82.9241	0.0521334
84.8525	0.0518761
86.781	0.0528938
88.7095	0.0523135
90.6379	0.0543823
92.5664	0.0556735
94.4948	0.056681
96.4233	0.0555575
98.3518	0.0553224
100.28	0.055002
102.209	0.0593666
104.137	0.060818
106.066	0.0614599
107.994	0.0615038
109.923	0.0632008
111.851	0.0640454
113.779	0.0640461
115.708	0.0632216
117.636	0.0647998
119.565	0.065952
121.493	0.0673504
123.422	0.0672794
125.35	0.0695898
127.279	0.0701386
129.207	0.0703509
131.136	0.0704925
133.064	0.0723301
134.993	0.0724808
136.921	0.0734415
138.85	0.0742925
140.778	0.0748275
142.707	0.0750367
144.635	0.0762519
146.563	0.076202
148.492	0.0774189
150.42	0.0781712
152.349	0.0786274
154.277	0.0781995
156.206	0.0790931
158.134	0.0795574
160.063	0.0796914
161.991	0.0801276
163.92	0.0814737
165.848	0.0817477
167.777	0.0820598
169.705	0.081791
171.633	0.0819249
173.562	0.0821096
175.49	0.0834465
177.419	0.0839514
179.347	0.0841814
181.276	0.084097
183.204	0.0842977
185.133	0.0847306
187.061	0.0853165
188.99	0.085206
190.918	0.0860131
192.847	0.0862258
194.775	0.0865374
196.704	0.0866092
198.632	0.0872119
200.56	0.0874965
202.489	0.0882913
204.417	0.088055
206.346	0.088349
208.274	0.0884495
210.203	0.08853
212.131	0.0886449
214.06	0.0895644
215.988	0.0895789
217.917	0.0900964
219.845	0.0903648
221.774	0.0909684
223.702	0.0907002
225.631	0.0905944
227.559	0.0908569
229.488	0.0912902
231.416	0.0917534
233.344	0.0923589
235.273	0.0923306
237.201	0.0925672
239.13	0.092747
241.058	0.0931354
242.987	0.093194
244.915	0.09334
246.844	0.0931451
248.772	0.0933075
250.701	0.0938705
252.629	0.094365
254.558	0.094173
256.486	0.0947991
258.414	0.0950932
260.343	0.0953263
262.271	0.0957348
264.2	0.0965358
266.128	0.0973457
268.057	0.0978107
269.985	0.0981386
271.914	0.098575
273.842	0.0985642
275.771	0.099027
277.699	0.0998625
279.628	0.100459
281.556	0.100649
283.485	0.100887
285.413	0.100973
287.341	0.101627
289.27	0.102152
291.198	0.102858
293.127	0.103048
295.055	0.103125
296.984	0.103374
298.912	0.103718
300.841	0.103999
302.769	0.104384
304.698	0.104072
306.626	0.104041
308.555	0.104277
310.483	0.104681
312.411	0.104847
314.34	0.105499
316.269	0.105951
318.197	0.105931
320.125	0.106027
322.054	0.106777
323.982	0.107491
325.911	0.108121
327.839	0.108359
329.768	0.108195
331.696	0.10822
333.625	0.109051
335.553	0.109495
337.482	0.109991
339.41	0.110119
341.339	0.110136
343.267	0.109975
345.195	0.110108
347.124	0.11036
349.052	0.110766
350.981	0.111374
352.909	0.111692
354.838	0.11178
356.766	0.111929
358.695	0.112318
360.623	0.113017
362.552	0.113536
364.48	0.113582
366.409	0.113941
368.337	0.114538
370.265	0.114849
372.194	0.115261
374.122	0.115612
376.051	0.116188
377.979	0.116426
379.908	0.116739
381.836	0.116802
383.765	0.116953
385.693	0.117305
387.622	0.117822
389.55	0.11798
391.479	0.118494
393.407	0.118775
395.336	0.119121
397.264	0.119603
399.192	0.120048
401.121	0.120267
403.049	0.120911
404.978	0.12119
406.906	0.121563
408.835	0.122038
410.763	0.122868
412.692	0.123187
414.62	0.123312
416.549	0.12372
418.477	0.124449
420.406	0.124627
422.334	0.124399
424.262	0.124645
426.191	0.125291
428.12	0.125649
430.048	0.126142
431.976	0.126413
433.905	0.126714
435.833	0.126992
437.762	0.127564
439.69	0.128096
441.619	0.128225
443.547	0.1284
445.476	0.128952
447.404	0.129515
449.333	0.129978
451.261	0.130411
453.19	0.130682
455.118	0.131042
457.046	0.13154
458.975	0.131857
460.903	0.132371
462.832	0.132674
464.76	0.132863
466.689	0.132915
468.617	0.132699
470.546	0.132877
472.474	0.133247
474.403	0.13289
476.331	0.1329
478.26	0.133199
480.188	0.133562
482.116	0.133542
484.045	0.134028
485.974	0.134459
487.902	0.134694
489.83	0.134901
491.759	0.135185
493.687	0.134871
495.616	0.134995
497.544	0.135695
499.473	0.136037
501.401	0.135787
503.33	0.135971
505.258	0.136396
507.187	0.1368
509.115	0.137009
511.043	0.137335
512.972	0.137408
514.9	0.137456
516.829	0.137581
518.757	0.138279
520.686	0.138674
522.614	0.139202
524.543	0.139744
526.471	0.139873
528.4	0.140212
530.328	0.140874
532.257	0.141198
534.185	0.141552
536.114	0.141892
538.042	0.142059
539.971	0.142165
541.899	0.1427
543.827	0.143125
545.756	0.14361
547.684	0.143738
549.613	0.144085
551.541	0.144426
553.47	0.144635
555.398	0.145129
557.327	0.145634
559.255	0.145631
561.184	0.145469
563.112	0.145813
565.041	0.146641
566.969	0.147172
568.898	0.147657
570.826	0.148007
572.755	0.148087
574.683	0.147868
576.611	0.148147
578.54	0.148835
580.468	0.14953
582.397	0.150025
584.325	0.150245
586.254	0.150208
588.182	0.150573
590.111	0.151085
592.039	0.151655
593.968	0.152031
595.896	0.152522
597.824	0.153061
599.753	0.153459
601.682	0.153553
603.61	0.154018
605.538	0.154684
607.467	0.155333
609.395	0.155536
611.324	0.155462
613.252	0.155599
615.181	0.156119
617.109	0.156483
619.038	0.157257
620.966	0.157362
622.894	0.156677
624.823	0.155922
626.751	0.156488
628.68	0.156702
630.608	0.156613
632.537	0.156813
634.465	0.157272
636.394	0.157823
638.322	0.158151
640.251	0.15858
642.179	0.159271
644.108	0.159569
646.036	0.159819
647.965	0.160125
649.893	0.160248
651.822	0.160265
653.75	0.160281
655.678	0.160499
657.607	0.160967
659.535	0.16135
661.464	0.162016
663.392	0.162373
665.321	0.162346
667.249	0.162694
669.178	0.162857
671.106	0.162849
673.035	0.163243
674.963	0.163742
676.892	0.163735
678.82	0.163835
680.749	0.164875
682.677	0.166023
684.606	0.165681
686.534	0.165284
688.462	0.166048
690.391	0.166415
692.319	0.166335
694.248	0.166281
696.176	0.166771
698.105	0.167476
700.033	0.167907
