Measurement: Infrared, Infrared Data Processed
Mineral: Smithsonite
Rruff sample: R040035
Ideal chemistry: Zn^2+^CO_3_
Locality: Mazapil, Zacatecas, Mexico
Source: University of Arizona Mineral Museum
Description: Pale green-blue fine-grained massive
Measured chemistry: (Zn_0.97_Ca_0.02_Pb_0.01_)_Î£=1_C_1.00_O_3_; CO_2_ estimated by difference
x	intensity
399.193	0
408.835	3.02183e-05
418.477	-0.000411761
428.12	0.000856133
437.762	0.000441325
447.404	-8.21942e-05
457.047	0.000429141
466.689	0.00123801
476.331	0.00109296
485.974	9.51886e-05
495.616	0.00126611
505.258	0.000437533
514.901	0.000755446
524.543	0.000492961
534.185	0.000779991
543.828	0.000579646
553.47	0.000627056
563.112	0.000774052
572.755	0.00019759
582.397	0.000966981
592.039	0.000685133
601.682	0.000550516
611.324	0.00057934
620.966	0.000595704
630.609	0.000538821
640.251	0.000819194
649.893	0.000875197
659.536	0.000835987
669.178	0.00111043
678.82	0.0010781
688.463	0.000942544
698.105	0.000569389
707.747	0.00151993
717.39	0.000861397
727.032	0.00119708
736.674	0.00217705
746.317	0.00388853
755.959	0.000785456
765.601	0.000952132
775.244	0.000962252
784.886	0.00113336
794.528	0.00124493
804.171	0.00118989
813.813	0.00123028
823.455	0.00117282
833.098	0.00127274
842.74	0.0017741
852.382	0.00235816
862.025	0.00520986
871.667	0.00866737
881.309	0.00219047
890.952	0.00116305
900.594	0.00102837
910.236	0.000807809
919.879	0.00119862
929.521	0.00119187
939.163	0.00118913
948.806	0.00114553
958.448	0.00105626
968.09	0.00116125
977.733	0.000880998
987.375	0.0013621
997.017	0.00114348
1006.66	0.00120895
1016.3	0.00126477
1025.94	0.00148986
1035.59	0.00117014
1045.23	0.00145359
1054.87	0.00144383
1064.51	0.00125889
1074.16	0.00161485
1083.8	0.00137433
1093.44	0.00148636
1103.08	0.00174463
1112.72	0.00156729
1122.37	0.00166871
1132.01	0.00178627
1141.65	0.00173859
1151.3	0.00190938
1160.94	0.00221665
1170.58	0.00223281
1180.22	0.00213018
1189.86	0.00207479
1199.51	0.0023012
1209.15	0.00250075
1218.79	0.00246585
1228.43	0.00250692
1238.08	0.00260773
1247.72	0.00269965
1257.36	0.00290717
1267	0.00318382
1276.64	0.00340617
1286.29	0.0037551
1295.93	0.0037343
1305.57	0.00429706
1315.21	0.00461143
1324.86	0.0051131
1334.5	0.00551248
1344.14	0.00606909
1353.78	0.00686149
1363.43	0.00796807
1373.07	0.00917209
1382.71	0.010639
1392.35	0.0123946
1401.99	0.0148103
1411.64	0.0165856
1421.28	0.0171638
1430.92	0.0166673
1440.57	0.0157652
1450.21	0.0143338
1459.85	0.0137084
1469.49	0.0126415
1479.13	0.0114919
1488.78	0.010201
1498.42	0.00892567
1508.06	0.00745223
1517.7	0.00569941
1527.35	0.00437123
1536.99	0.00309688
1546.63	0.00247503
1556.27	0.00164874
1565.91	0.00123846
1575.56	0.000496846
1585.2	0.00037279
1594.84	0.000493203
1604.48	0.000821955
1614.13	0.000481883
1623.77	0.000157801
1633.41	0.000219552
1643.05	0.000306934
1652.7	0.000131429
1662.34	0.000404729
1671.98	0.000119502
1681.62	0.000115139
1691.27	6.80672e-05
1700.91	-0.000112592
1710.55	0.000175929
1720.19	0.000170695
1729.84	0.000404737
1739.48	0.000350638
1749.12	0.000710612
1758.76	0.000370786
1768.4	0.000303993
1778.05	0.000209061
1787.69	0.000678539
1797.33	0.000475363
1806.97	0.000419383
1816.62	0.000304672
1826.26	0.000780254
1835.9	0.000224481
1845.54	0.000125626
1855.18	-9.2255e-05
1864.83	0.000382115
1874.47	0.000912315
1884.11	7.53533e-05
1893.75	0.00051284
1903.4	0.000595845
1913.04	0.000492419
1922.68	0.00114661
1932.32	0.000211511
1941.97	0.0011535
1951.61	-0.000917
1961.25	7.17253e-05
1970.89	-0.000299934
1980.54	-0.000536467
1990.18	0.00149146
1999.82	0.00151714
2009.46	-0.000265493
2019.11	0.000686379
2028.75	0.000390085
2038.39	0.00328114
2048.03	0.000559363
2057.67	0.000884418
2067.32	0.00151557
2076.96	0.00144519
2086.6	0.000215949
2096.24	-0.000184326
2105.89	0.000312425
2115.53	0.000798571
2125.17	0.00122995
2134.81	0.000387371
2144.45	0.00185994
2154.1	-0.000440853
2163.74	0.00195444
2173.38	0.000676341
2183.02	0.000674335
2192.67	0.000707184
2202.31	-0.000380159
2211.95	0.000670128
2221.59	0.00143457
2231.24	-0.000959403
2240.88	3.21872e-05
2250.52	-0.000454107
2260.16	0.00140975
2269.8	-2.92805e-05
2279.45	0.000523582
2289.09	-0.000548798
2298.73	0.000893991
2308.38	0.000517269
2318.02	0.000147875
2327.66	0.000672632
2337.3	0.000566513
2346.94	0.000303326
2356.59	0.000934155
2366.23	0.00115271
2375.87	0.00123321
2385.51	0.000156804
2395.16	0.00126315
2404.8	0.000897561
2414.44	0.000987801
2424.08	0.00100614
2433.72	0.000112477
2443.37	0.000760213
2453.01	0.000159546
2462.65	0.000205634
2472.29	0.000993203
2481.94	0.000238095
2491.58	0.000660234
2501.22	0.00124061
2510.86	0.00183325
2520.51	0.000825356
2530.15	0.000522502
2539.79	0.000626038
2549.43	0.00179348
2559.07	0.000742028
2568.72	0.000578164
2578.36	0.00203231
2588	0.000267942
2597.64	0.000839182
2607.29	0.000825009
2616.93	0.000810014
2626.57	0.00108241
2636.21	0.000609368
2645.86	0.00128773
2655.5	0.000219857
2665.14	0.000869578
2674.78	0.00058983
2684.43	0.00115826
2694.07	0.000567742
2703.71	0.000861104
2713.35	0.000203891
2722.99	0.00078184
2732.64	0.00132636
2742.28	0.000648188
2751.92	0.00115545
2761.56	0.00160188
2771.21	0.00133856
2780.85	0.00132358
2790.49	0.00167347
2800.13	0.00174049
2809.78	0.00163507
2819.42	0.00111798
2829.06	0.00133518
2838.7	0.00175072
2848.34	0.00230458
2857.99	0.00176167
2867.63	0.00146012
2877.27	0.00154149
2886.91	0.000890594
2896.56	0.00136427
2906.2	0.00127936
2915.84	0.00223986
2925.48	0.00234817
2935.13	0.00175908
2944.77	0.00167605
2954.41	0.00123817
2964.05	0.00190389
2973.7	0.000911274
2983.34	0.00108112
2992.98	0.00147066
3002.62	0.000557999
3012.26	0.00242805
3021.91	0.00232668
3031.55	0.000149125
3041.19	0.00253466
3050.83	0.000911867
3060.48	0.00159329
3070.12	0.00188881
3079.76	0.000273777
3089.4	0.00186993
3099.05	0.00167362
3108.69	0.00103926
3118.33	0.00196122
3127.97	0.000682422
3137.61	0.00208288
3147.26	0.000685173
3156.9	0.00118154
3166.54	0.000211937
3176.18	0.00148277
3185.83	0.000719032
3195.47	0.00189142
3205.11	0.00151137
3214.75	0.00103754
3224.4	0.00167546
3234.04	0.00214262
3243.68	0.00168817
3253.32	0.00107039
3262.97	0.00101654
3272.61	0.00110083
3282.25	0.00131153
3291.89	0.0017017
3301.53	0.00233395
3311.18	0.00109229
3320.82	0.00139667
3330.46	0.00153439
3340.1	0.00218155
3349.75	0.000425068
3359.39	0.00337835
3369.03	0.000583752
3378.67	0.00257032
3388.32	0.000886783
3397.96	0.001152
3407.6	0.00211138
3417.24	0.00185256
3426.89	0.002565
3436.53	0.000881428
3446.17	0.00221212
3455.81	0.00146251
3465.45	0.00223319
3475.1	0.00279936
3484.74	0.0047802
3494.38	0.00120561
3504.02	0.00271452
3513.67	0.00158711
3523.31	0.00345915
3532.95	0.00220738
3542.59	0.00303383
3552.24	0.00206595
3561.88	0.00175358
3571.52	0.00292114
3581.16	0.00206011
3590.8	0.00414055
3600.45	0.00301534
3610.09	0.00139059
3619.73	0.00111417
3629.37	0.00213359
3639.02	0.00295274
3648.66	0.00273506
3658.3	0.00135314
3667.94	0.00146005
3677.59	0.00133912
3687.23	0.00226799
3696.87	0.00270377
3706.51	0.00296612
3716.16	0.00198636
3725.8	0.00305241
3735.44	0.00424869
3745.08	0.00371118
3754.72	0.00198492
3764.37	-0.000759911
3774.01	0.00327585
3783.65	0.000606855
3793.29	0.000499868
3802.94	0.00168347
3812.58	0.000618674
3822.22	0.00313398
3831.86	0.00247439
3841.51	0.00325622
3851.15	0.00139884
3860.79	0.00309194
3870.43	0.00165949
3880.07	0.000860344
3889.72	0.00453936
3899.36	0.00331526
3909	0.00325934
3918.64	0.00190636
3928.29	0.00172128
3937.93	0.00341693
3947.57	0.00521812
3957.21	0.0040464
3966.86	0.00233858
3976.5	0.00216699
3986.14	0.00241744
3995.78	-0.000740045
