Measurement: Infrared, Infrared Data Processed
Mineral: Spessartine
Rruff sample: R050063
Ideal chemistry: Mn^2+^_3_Al_2_(SiO_4_)_3_
Locality: Fujian Province, China
Source: Rock Currier
Description: Reddish brown crystals
Measured chemistry: (Mn_2.72_Fe_0.24_Ca_0.04_)_Σ=3_(Al_1.95_Fe^3+^_0.05_)_Σ=2_(Si_1.00_O_4_)_2.75_(F_0.58_(OH)_0.42_)_Σ=1_; trace amounts of Mg; OH estimated by charge balance
x	intensity
399.193	0
408.835	0.253007
418.477	0.280499
428.12	0.290838
437.762	0.285513
447.404	0.257671
457.047	0.250253
466.689	0.226786
476.331	0.194201
485.974	0.167321
495.616	0.141158
505.258	0.113272
514.901	0.0942925
524.543	0.0912488
534.185	0.0925271
543.828	0.109746
553.47	0.15225
563.112	0.168982
572.755	0.127771
582.397	0.0840449
592.039	0.0554893
601.682	0.0427184
611.324	0.0390972
620.966	0.0484273
630.609	0.0525294
640.251	0.0314551
649.893	0.0260893
659.536	0.0248274
669.178	0.0252139
678.82	0.0254323
688.463	0.0266384
698.105	0.0299613
707.747	0.0346245
717.39	0.0415879
727.032	0.0458881
736.674	0.0478066
746.317	0.0521546
755.959	0.0575253
765.601	0.0684325
775.244	0.0859431
784.886	0.108654
794.528	0.135079
804.171	0.165785
813.813	0.201733
823.455	0.241411
833.098	0.274543
842.74	0.294176
852.382	0.29807
862.025	0.284646
871.667	0.257642
881.309	0.244857
890.952	0.219302
900.594	0.180947
910.236	0.148169
919.879	0.133544
929.521	0.161468
939.163	0.225625
948.806	0.239984
958.448	0.206271
968.09	0.162893
977.733	0.123438
987.375	0.0956609
997.017	0.0779689
1006.66	0.0575099
1016.3	0.0390821
1025.94	0.0279323
1035.59	0.0212293
1045.23	0.0179112
1054.87	0.0158149
1064.51	0.0140381
1074.16	0.0127363
1083.8	0.0112039
1093.44	0.00995306
1103.08	0.00944607
1112.72	0.00853074
1122.37	0.00789815
1132.01	0.00702766
1141.65	0.00655363
1151.3	0.0056327
1160.94	0.00503802
1170.58	0.00428716
1180.22	0.00406132
1189.86	0.00368976
1199.51	0.00339048
1209.15	0.00325997
1218.79	0.00333925
1228.43	0.00326135
1238.08	0.00339455
1247.72	0.00360092
1257.36	0.00376449
1267	0.00352802
1276.64	0.0040311
1286.29	0.00405233
1295.93	0.00404746
1305.57	0.00449394
1315.21	0.00486034
1324.86	0.00471779
1334.5	0.00496969
1344.14	0.0047915
1353.78	0.00528156
1363.43	0.00569956
1373.07	0.00572294
1382.71	0.00548932
1392.35	0.00578909
1401.99	0.00577382
1411.64	0.00579614
1421.28	0.00589399
1430.92	0.00620374
1440.57	0.00653775
1450.21	0.00659639
1459.85	0.00680667
1469.49	0.00652982
1479.13	0.00619344
1488.78	0.00579671
1498.42	0.00567403
1508.06	0.00563022
1517.7	0.00542905
1527.35	0.00584965
1536.99	0.00607188
1546.63	0.00642779
1556.27	0.00711214
1565.91	0.00802488
1575.56	0.00797256
1585.2	0.00905365
1594.84	0.00894401
1604.48	0.00861528
1614.13	0.00887455
1623.77	0.00863077
1633.41	0.00840846
1643.05	0.00801678
1652.7	0.00778006
1662.34	0.00831308
1671.98	0.00868136
1681.62	0.00833151
1691.27	0.00904866
1700.91	0.00900108
1710.55	0.00997188
1720.19	0.00945312
1729.84	0.0093764
1739.48	0.00864095
1749.12	0.00857044
1758.76	0.00895968
1768.4	0.00861988
1778.05	0.00915856
1787.69	0.00898378
1797.33	0.00860068
1806.97	0.00895167
1816.62	0.00854503
1826.26	0.00861694
1835.9	0.00907767
1845.54	0.00893877
1855.18	0.00925748
1864.83	0.00847208
1874.47	0.00816998
1884.11	0.00721221
1893.75	0.00714407
1903.4	0.00770535
1913.04	0.00765717
1922.68	0.00639489
1932.32	0.00558406
1941.97	0.00573054
1951.61	0.00608605
1961.25	0.00475793
1970.89	0.00647917
1980.54	0.0114928
1990.18	0.00842705
1999.82	0.00912022
2009.46	0.0090607
2019.11	0.00968989
2028.75	0.00945752
2038.39	0.0116915
2048.03	0.014322
2057.67	0.0112703
2067.32	0.0125896
2076.96	0.0143885
2086.6	0.0138177
2096.24	0.0125182
2105.89	0.0135897
2115.53	0.0138948
2125.17	0.0111172
2134.81	0.0106379
2144.45	0.0114273
2154.1	0.00866853
2163.74	0.0162887
2173.38	0.013044
2183.02	0.0110942
2192.67	0.0153999
2202.31	0.0155164
2211.95	0.0125856
2221.59	0.0145926
2231.24	0.0142372
2240.88	0.0156269
2250.52	0.0150195
2260.16	0.0145969
2269.8	0.0160972
2279.45	0.0163178
2289.09	0.0167896
2298.73	0.017095
2308.38	0.0173713
2318.02	0.0169306
2327.66	0.0164277
2337.3	0.0168213
2346.94	0.0157188
2356.59	0.0163282
2366.23	0.0153757
2375.87	0.0158749
2385.51	0.0158991
2395.16	0.0162829
2404.8	0.0159653
2414.44	0.0168436
2424.08	0.0162545
2433.72	0.0159364
2443.37	0.0169946
2453.01	0.0167959
2462.65	0.0175923
2472.29	0.016259
2481.94	0.0172673
2491.58	0.0168716
2501.22	0.0175798
2510.86	0.0173706
2520.51	0.0182744
2530.15	0.0169143
2539.79	0.0169057
2549.43	0.0182912
2559.07	0.0183303
2568.72	0.0193959
2578.36	0.0184072
2588	0.0186355
2597.64	0.0191493
2607.29	0.0189853
2616.93	0.0198932
2626.57	0.0189444
2636.21	0.0196881
2645.86	0.0193144
2655.5	0.0193067
2665.14	0.0183678
2674.78	0.0183879
2684.43	0.0181108
2694.07	0.0182519
2703.71	0.0187753
2713.35	0.0181627
2722.99	0.0189504
2732.64	0.0184486
2742.28	0.0183766
2751.92	0.0185149
2761.56	0.0199113
2771.21	0.0196645
2780.85	0.0190346
2790.49	0.0192077
2800.13	0.0198588
2809.78	0.0189728
2819.42	0.0194755
2829.06	0.0199537
2838.7	0.0199644
2848.34	0.0204094
2857.99	0.0204648
2867.63	0.0207241
2877.27	0.0212245
2886.91	0.0217256
2896.56	0.0219322
2906.2	0.0222623
2915.84	0.0219084
2925.48	0.0237807
2935.13	0.0218509
2944.77	0.0223113
2954.41	0.0203463
2964.05	0.0213648
2973.7	0.0215501
2983.34	0.0218064
2992.98	0.0217672
3002.62	0.0217628
3012.26	0.0215162
3021.91	0.0215038
3031.55	0.0215312
3041.19	0.0215456
3050.83	0.0206891
3060.48	0.0223193
3070.12	0.0226053
3079.76	0.0218512
3089.4	0.0229684
3099.05	0.0225887
3108.69	0.0213526
3118.33	0.0219741
3127.97	0.0221066
3137.61	0.023698
3147.26	0.024057
3156.9	0.0227852
3166.54	0.0227654
3176.18	0.0232268
3185.83	0.0230286
3195.47	0.0240157
3205.11	0.0235627
3214.75	0.0241575
3224.4	0.023813
3234.04	0.0252087
3243.68	0.0247351
3253.32	0.0249769
3262.97	0.0248993
3272.61	0.0245566
3282.25	0.0247608
3291.89	0.0254406
3301.53	0.025704
3311.18	0.0252445
3320.82	0.0259208
3330.46	0.0247925
3340.1	0.0255359
3349.75	0.0264275
3359.39	0.026239
3369.03	0.0270808
3378.67	0.026595
3388.32	0.0279555
3397.96	0.0274684
3407.6	0.0269981
3417.24	0.0259798
3426.89	0.0263749
3436.53	0.027491
3446.17	0.0259253
3455.81	0.0258293
3465.45	0.0282314
3475.1	0.0270804
3484.74	0.0266302
3494.38	0.0257044
3504.02	0.026071
3513.67	0.02522
3523.31	0.0248328
3532.95	0.0249276
3542.59	0.0265739
3552.24	0.0263392
3561.88	0.0286908
3571.52	0.0335384
3581.16	0.0339115
3590.8	0.0267399
3600.45	0.0264404
3610.09	0.0263007
3619.73	0.0255094
3629.37	0.0248965
3639.02	0.0232649
3648.66	0.0211676
3658.3	0.0211909
3667.94	0.0206726
3677.59	0.023258
3687.23	0.0217487
3696.87	0.0203964
3706.51	0.0214553
3716.16	0.0228838
3725.8	0.0225961
3735.44	0.0215947
3745.08	0.0207663
3754.72	0.0240641
3764.37	0.0233961
3774.01	0.0237788
3783.65	0.0237831
3793.29	0.0239493
3802.94	0.0242464
3812.58	0.0247375
3822.22	0.0227492
3831.86	0.0219663
3841.51	0.0213649
3851.15	0.0231446
3860.79	0.0212949
3870.43	0.0215226
3880.07	0.0233921
3889.72	0.0254561
3899.36	0.0217816
3909	0.0224891
3918.64	0.0246524
3928.29	0.0220505
3937.93	0.0202923
3947.57	0.0239173
3957.21	0.0245507
3966.86	0.0239589
3976.5	0.0215388
3986.14	0.0246187
3995.78	0.0243921
