Measurement: Infrared, Infrared Data Processed
Mineral: Stannite
Rruff sample: R050187
Ideal chemistry: Cu^1+^_2_Fe^2+^Sn^4+^S^2-^_4_
Locality: Yaogangxian mine, Yizhang County, Hunan Province, China
Source: Marcus Origlieri and George Guanghua Liu
Description: Bluish-black octahedron associated with fluorite and quartz. According to Kissin & Owens (1989), since 2a is significantly larger than c, this sample is stannite.
Measured chemistry: Cu_2.00_(Fe_0.66_Zn_0.34_)Sn_1.00_S_4.00_
x	intensity
374.123	0.0346202
383.765	0.0444341
393.407	0.0640192
403.05	0.0819892
412.692	0.0984605
422.334	0.112202
431.976	0.123559
441.619	0.133921
451.261	0.144645
460.904	0.154287
470.546	0.166107
480.188	0.172069
489.83	0.17714
499.473	0.179782
509.115	0.183796
518.758	0.183199
528.4	0.183837
538.042	0.182707
547.684	0.182552
557.327	0.182107
566.969	0.184767
576.611	0.188404
586.254	0.197464
595.896	0.209048
605.538	0.191885
615.181	0.191837
624.823	0.199576
634.466	0.18181
644.108	0.182523
653.75	0.189776
663.393	0.197376
673.035	0.192305
682.677	0.172803
692.319	0.171621
701.962	0.175392
711.604	0.178816
721.246	0.180399
730.889	0.181981
740.531	0.185059
750.173	0.18877
759.816	0.194327
769.458	0.201225
779.101	0.207232
788.743	0.2098
798.385	0.209992
808.028	0.207185
817.67	0.202739
827.312	0.199884
836.955	0.198646
846.597	0.199708
856.239	0.200551
865.881	0.201117
875.524	0.201214
885.166	0.201138
894.808	0.203166
904.451	0.205512
914.093	0.209818
923.736	0.214343
933.378	0.220202
943.02	0.225385
952.663	0.231424
962.305	0.237237
971.947	0.242571
981.59	0.247395
991.232	0.251519
1000.87	0.258072
1010.52	0.271016
1020.16	0.277479
1029.8	0.265605
1039.44	0.27856
1049.09	0.289166
1058.73	0.302521
1068.37	0.315163
1078.01	0.321184
1087.65	0.322498
1097.3	0.323485
1106.94	0.323456
1116.58	0.315402
1126.22	0.302744
1135.87	0.290929
1145.51	0.28069
1155.15	0.271378
1164.79	0.259182
1174.44	0.246671
1184.08	0.235874
1193.72	0.225894
1203.36	0.214785
1213.01	0.201462
1222.65	0.185756
1232.29	0.170432
1241.93	0.163659
1251.58	0.163687
1261.22	0.165487
1270.86	0.167552
1280.5	0.170489
1290.14	0.173624
1299.79	0.176826
1309.43	0.179706
1319.07	0.182503
1328.71	0.184894
1338.36	0.187847
1348	0.190233
1357.64	0.192735
1367.28	0.194586
1376.92	0.196924
1386.57	0.199223
1396.21	0.201454
1405.85	0.203639
1415.49	0.205874
1425.14	0.208488
1434.78	0.210765
1444.42	0.213241
1454.06	0.21542
1463.71	0.217498
1473.35	0.219665
1482.99	0.22145
1492.63	0.223077
1502.28	0.223588
1511.92	0.224019
1521.56	0.22486
1531.2	0.225742
1540.85	0.226868
1550.49	0.228389
1560.13	0.230282
1569.77	0.231847
1579.41	0.234121
1589.06	0.235691
1598.7	0.237998
1608.34	0.239956
1617.98	0.242034
1627.63	0.243262
1637.27	0.243395
1646.91	0.243318
1656.55	0.243317
1666.19	0.243548
1675.84	0.242877
1685.48	0.241723
1695.12	0.24244
1704.77	0.242876
1714.41	0.243411
1724.05	0.244275
1733.69	0.244415
1743.33	0.244591
1752.98	0.245229
1762.62	0.246494
1772.26	0.247918
1781.9	0.249098
1791.55	0.249537
1801.19	0.251049
1810.83	0.252068
1820.47	0.253894
1830.12	0.255087
1839.76	0.256242
1849.4	0.257342
1859.04	0.258455
1868.68	0.259837
1878.33	0.261214
1887.97	0.261812
1897.61	0.263461
1907.25	0.264228
1916.9	0.26623
1926.54	0.266246
1936.18	0.268922
1945.82	0.269628
1955.46	0.270706
1965.11	0.2709
1974.75	0.271357
1984.39	0.275231
1994.04	0.276124
2003.68	0.273714
2013.32	0.27863
2022.96	0.276907
2032.6	0.279919
2042.25	0.278277
2051.89	0.281924
2061.53	0.282813
2071.17	0.284154
2080.82	0.283699
2090.46	0.284044
2100.1	0.286501
2109.74	0.285792
2119.39	0.286128
2129.03	0.286157
2138.67	0.287714
2148.31	0.287362
2157.95	0.288032
2167.6	0.289719
2177.24	0.290113
2186.88	0.291104
2196.52	0.292822
2206.17	0.291883
2215.81	0.292652
2225.45	0.294845
2235.09	0.295174
2244.74	0.295763
2254.38	0.297718
2264.02	0.29845
2273.66	0.300764
2283.3	0.301622
2292.95	0.301115
2302.59	0.30247
2312.23	0.302623
2321.87	0.304045
2331.52	0.303071
2341.16	0.30469
2350.8	0.305243
2360.44	0.304157
2370.09	0.30679
2379.73	0.307649
2389.37	0.308734
2399.01	0.309099
2408.66	0.310685
2418.3	0.311229
2427.94	0.312768
2437.58	0.313266
2447.22	0.313997
2456.87	0.315631
2466.51	0.317046
2476.15	0.31709
2485.79	0.318364
2495.44	0.318729
2505.08	0.319211
2514.72	0.321269
2524.36	0.320407
2534.01	0.321629
2543.65	0.322396
2553.29	0.324018
2562.93	0.3255
2572.57	0.325865
2582.22	0.326765
2591.86	0.328
2601.5	0.329071
2611.14	0.330311
2620.79	0.331377
2630.43	0.332966
2640.07	0.333651
2649.71	0.334518
2659.36	0.335801
2669	0.336426
2678.64	0.337664
2688.28	0.338002
2697.93	0.339482
2707.57	0.340913
2717.21	0.341627
2726.85	0.342796
2736.49	0.343894
2746.14	0.346049
2755.78	0.347645
2765.42	0.348152
2775.06	0.34884
2784.71	0.350867
2794.35	0.351824
2803.99	0.353342
2813.63	0.354923
2823.28	0.356359
2832.92	0.358059
2842.56	0.35876
2852.2	0.360336
2861.84	0.361812
2871.49	0.362582
2881.13	0.363545
2890.77	0.365033
2900.41	0.36634
2910.06	0.367252
2919.7	0.368075
2929.34	0.369667
2938.98	0.36976
2948.62	0.371976
2958.27	0.372321
2967.91	0.373308
2977.55	0.37384
2987.2	0.375039
2996.84	0.376659
3006.48	0.378038
3016.12	0.380079
3025.76	0.382256
3035.41	0.382971
3045.05	0.384925
3054.69	0.386817
3064.33	0.387505
3073.98	0.389597
3083.62	0.390431
3093.26	0.391376
3102.9	0.392396
3112.55	0.394615
3122.19	0.395611
3131.83	0.39621
3141.47	0.397181
3151.11	0.398648
3160.76	0.398481
3170.4	0.400192
3180.04	0.400753
3189.68	0.399973
3199.33	0.399605
3208.97	0.400096
3218.61	0.401876
3228.25	0.400686
3237.9	0.400395
3247.54	0.402497
3257.18	0.402293
3266.82	0.403037
3276.47	0.402173
3286.11	0.403002
3295.75	0.402355
3305.39	0.402391
3315.03	0.402399
3324.68	0.400905
3334.32	0.401042
3343.96	0.399387
3353.6	0.396702
3363.25	0.395539
3372.89	0.394401
3382.53	0.391865
3392.17	0.389191
3401.82	0.388422
3411.46	0.386116
3421.1	0.383408
3430.74	0.383523
3440.39	0.383239
3450.03	0.381728
3459.67	0.381227
3469.31	0.38042
3478.95	0.379647
3488.6	0.378542
3498.24	0.376478
3507.88	0.375099
3517.52	0.374131
3527.17	0.374616
3536.81	0.373848
3546.45	0.373331
3556.09	0.373069
3565.74	0.373188
3575.38	0.372565
3585.02	0.373546
3594.66	0.372791
3604.3	0.37351
3613.95	0.373362
3623.59	0.374729
3633.23	0.374146
3642.87	0.374738
3652.52	0.375391
3662.16	0.379171
3671.8	0.378751
3681.44	0.380416
3691.09	0.381083
3700.73	0.381919
3710.37	0.383561
3720.01	0.383754
3729.66	0.382744
3739.3	0.385607
3748.94	0.38695
3758.58	0.38788
3768.22	0.386544
3777.87	0.38805
3787.51	0.38654
3797.15	0.387257
3806.79	0.387257
3816.44	0.388991
3826.08	0.388978
3835.72	0.389539
3845.36	0.389471
3855.01	0.391915
3864.65	0.389426
3874.29	0.391514
3883.93	0.390907
3893.57	0.391414
3903.22	0.387184
3912.86	0.391055
3922.5	0.392529
3932.14	0.393121
3941.79	0.39152
3951.43	0.390903
3961.07	0.392265
3970.71	0.394414
3980.36	0.393566
3990	0.393171
3999.64	0.393524
