Measurement: Infrared, Infrared Data Processed
Mineral: Stephanite
Rruff sample: R050309
Ideal chemistry: Ag^1+^_5_Sb^3+^S^2-^_4_
Locality: Sonora, Mexico
Source: Eugene Schlepp
Description: Black fragment in quartz, associated with pyrargyrite. Electron microscope image shows two fine-scale phases.
Measured chemistry: Ag_5.22_(Sb_0.93_As_0.10_)_Î£=1.03_S_4.00_
x	intensity
399.193	0.204004
408.835	0.220203
418.477	0.236945
428.12	0.245571
437.762	0.254286
447.404	0.263455
457.047	0.272583
466.689	0.279098
476.331	0.285566
485.974	0.287566
495.616	0.296639
505.258	0.304526
514.901	0.312127
524.543	0.316454
534.185	0.324033
543.828	0.329198
553.47	0.338722
563.112	0.337746
572.755	0.342888
582.397	0.348418
592.039	0.353591
601.682	0.359981
611.324	0.36325
620.966	0.366666
630.609	0.373738
640.251	0.375195
649.893	0.378837
659.536	0.383313
669.178	0.384737
678.82	0.387307
688.463	0.390876
698.105	0.395371
707.747	0.398905
717.39	0.401599
727.032	0.404243
736.674	0.40752
746.317	0.413357
755.959	0.41915
765.601	0.425124
775.244	0.428835
784.886	0.429461
794.528	0.431017
804.171	0.432283
813.813	0.434977
823.455	0.436058
833.098	0.438036
842.74	0.438688
852.382	0.439681
862.025	0.441698
871.667	0.443752
881.309	0.444444
890.952	0.447175
900.594	0.449992
910.236	0.452228
919.879	0.455709
929.521	0.457587
939.163	0.459631
948.806	0.462753
958.448	0.464769
968.09	0.467185
977.733	0.47023
987.375	0.473597
997.017	0.475631
1006.66	0.479138
1016.3	0.482866
1025.94	0.484516
1035.59	0.487642
1045.23	0.489281
1054.87	0.49109
1064.51	0.494166
1074.16	0.496341
1083.8	0.498819
1093.44	0.50002
1103.08	0.501481
1112.72	0.504057
1122.37	0.505789
1132.01	0.509106
1141.65	0.512808
1151.3	0.513641
1160.94	0.514429
1170.58	0.514139
1180.22	0.516439
1189.86	0.520321
1199.51	0.52244
1209.15	0.524401
1218.79	0.526373
1228.43	0.527746
1238.08	0.529218
1247.72	0.529903
1257.36	0.53083
1267	0.530679
1276.64	0.532767
1286.29	0.535026
1295.93	0.537393
1305.57	0.53917
1315.21	0.540658
1324.86	0.54309
1334.5	0.545929
1344.14	0.547231
1353.78	0.549518
1363.43	0.551991
1373.07	0.553188
1382.71	0.555572
1392.35	0.558671
1401.99	0.561459
1411.64	0.565362
1421.28	0.56864
1430.92	0.570053
1440.57	0.572663
1450.21	0.573752
1459.85	0.574753
1469.49	0.577789
1479.13	0.581407
1488.78	0.582683
1498.42	0.58338
1508.06	0.584261
1517.7	0.583943
1527.35	0.585854
1536.99	0.585624
1546.63	0.587834
1556.27	0.589274
1565.91	0.590611
1575.56	0.592294
1585.2	0.593945
1594.84	0.595821
1604.48	0.59768
1614.13	0.598406
1623.77	0.60002
1633.41	0.602204
1643.05	0.603873
1652.7	0.605503
1662.34	0.606777
1671.98	0.607828
1681.62	0.610814
1691.27	0.612056
1700.91	0.611579
1710.55	0.611046
1720.19	0.613998
1729.84	0.616343
1739.48	0.614452
1749.12	0.616558
1758.76	0.623285
1768.4	0.627071
1778.05	0.629371
1787.69	0.629169
1797.33	0.630859
1806.97	0.631441
1816.62	0.633321
1826.26	0.633809
1835.9	0.636624
1845.54	0.636725
1855.18	0.639484
1864.83	0.639405
1874.47	0.641608
1884.11	0.641514
1893.75	0.644169
1903.4	0.645822
1913.04	0.646366
1922.68	0.643841
1932.32	0.646177
1941.97	0.643998
1951.61	0.646324
1961.25	0.638922
1970.89	0.630507
1980.54	0.645028
1990.18	0.64229
1999.82	0.645974
2009.46	0.642187
2019.11	0.640632
2028.75	0.640075
2038.39	0.642735
2048.03	0.654132
2057.67	0.659158
2067.32	0.661415
2076.96	0.66845
2086.6	0.6691
2096.24	0.671406
2105.89	0.673736
2115.53	0.677292
2125.17	0.673473
2134.81	0.670268
2144.45	0.66543
2154.1	0.664485
2163.74	0.658815
2173.38	0.673724
2183.02	0.672953
2192.67	0.677844
2202.31	0.682064
2211.95	0.683731
2221.59	0.688423
2231.24	0.687868
2240.88	0.693058
2250.52	0.695033
2260.16	0.702585
2269.8	0.70222
2279.45	0.707104
2289.09	0.71325
2298.73	0.715109
2308.38	0.717088
2318.02	0.719025
2327.66	0.720823
2337.3	0.722059
2346.94	0.7237
2356.59	0.726302
2366.23	0.72696
2375.87	0.725916
2385.51	0.726544
2395.16	0.728694
2404.8	0.72826
2414.44	0.730835
2424.08	0.733889
2433.72	0.733517
2443.37	0.736006
2453.01	0.737872
2462.65	0.740476
2472.29	0.741067
2481.94	0.7424
2491.58	0.745267
2501.22	0.744956
2510.86	0.748723
2520.51	0.749059
2530.15	0.749301
2539.79	0.750686
2549.43	0.753829
2559.07	0.755639
2568.72	0.759608
2578.36	0.761139
2588	0.762385
2597.64	0.762463
2607.29	0.763498
2616.93	0.765579
2626.57	0.769818
2636.21	0.770721
2645.86	0.773216
2655.5	0.773942
2665.14	0.775887
2674.78	0.77724
2684.43	0.777976
2694.07	0.782033
2703.71	0.780358
2713.35	0.784131
2722.99	0.785595
2732.64	0.787037
2742.28	0.788539
2751.92	0.789951
2761.56	0.791411
2771.21	0.792891
2780.85	0.794365
2790.49	0.795851
2800.13	0.797274
2809.78	0.798724
2819.42	0.800187
2829.06	0.801641
2838.7	0.803129
2848.34	0.804484
2857.99	0.805899
2867.63	0.807418
2877.27	0.808949
2886.91	0.810382
2896.56	0.811769
2906.2	0.813287
2915.84	0.814539
2925.48	0.815948
2935.13	0.817522
2944.77	0.819071
2954.41	0.820612
2964.05	0.822105
2973.7	0.823631
2983.34	0.825095
2992.98	0.826566
3002.62	0.827971
3012.26	0.829494
3021.91	0.830903
3031.55	0.832438
3041.19	0.833901
3050.83	0.835377
3060.48	0.836777
3070.12	0.838273
3079.76	0.839758
3089.4	0.841165
3099.05	0.842628
3108.69	0.844181
3118.33	0.845648
3127.97	0.847025
3137.61	0.848527
3147.26	0.84999
3156.9	0.849214
3166.54	0.84939
3176.18	0.856344
3185.83	0.854936
3195.47	0.858259
3205.11	0.858042
3214.75	0.86046
3224.4	0.863491
3234.04	0.863673
3243.68	0.863351
3253.32	0.868044
3262.97	0.865208
3272.61	0.866494
3282.25	0.868779
3291.89	0.871421
3301.53	0.876737
3311.18	0.877419
3320.82	0.877532
3330.46	0.877261
3340.1	0.881389
3349.75	0.882008
3359.39	0.883322
3369.03	0.887377
3378.67	0.888341
3388.32	0.89019
3397.96	0.892426
3407.6	0.895458
3417.24	0.896764
3426.89	0.896917
3436.53	0.896549
3446.17	0.899247
3455.81	0.905007
3465.45	0.906628
3475.1	0.907547
3484.74	0.912702
3494.38	0.909423
3504.02	0.90876
3513.67	0.914389
3523.31	0.913388
3532.95	0.915364
3542.59	0.920131
3552.24	0.919045
3561.88	0.922018
3571.52	0.918923
3581.16	0.924978
3590.8	0.926371
3600.45	0.927385
3610.09	0.930833
3619.73	0.935446
3629.38	0.936434
3639.02	0.936841
3648.66	0.942826
3658.3	0.944528
3667.94	0.943073
3677.59	0.944278
3687.23	0.94916
3696.87	0.943721
3706.51	0.949121
3716.16	0.953146
3725.8	0.950224
3735.44	0.961324
3745.08	0.961193
3754.72	0.960952
3764.37	0.963044
3774.01	0.964514
3783.65	0.965855
3793.29	0.970823
3802.94	0.970611
3812.58	0.971399
3822.22	0.972496
3831.86	0.97543
3841.51	0.980477
3851.15	0.983861
3860.79	0.979902
3870.43	0.984484
3880.07	0.983494
3889.72	0.991237
3899.36	0.99443
3909	0.989372
3918.64	0.987042
3928.29	0.99354
3937.93	0.998245
3947.57	0.996514
3957.21	1.00438
3966.86	1.00367
3976.5	1.00463
3986.14	1.00133
3995.78	1.00874
