Measurement: Infrared, Infrared Data Processed
Mineral: Stibiotantalite
Rruff sample: R050232
Ideal chemistry: Sb^3+^Ta^5+^O_4_
Locality: Himalaya mine, Mesa Grande, San Diego County, California, USA
Source: Marcus Origlieri
Description: Brown crystal fragment
Measured chemistry: lighter and darker phases: Sb_1.00_(Ta_0.72_Nb_0.28_)_Î£=1_O_4_
x	intensity
50.1401	0.0447881
52.0686	0.0560883
53.9971	0.103288
55.9255	0.0412201
57.854	0.0296272
59.7825	0.026433
61.7109	0.0295833
63.6394	0.0396434
65.5679	0.0380043
67.4963	0.0383522
69.4248	0.0376046
71.3533	0.0403501
73.2817	0.0409334
75.2102	0.0402459
77.1387	0.0408876
79.0671	0.0448767
80.9956	0.0465512
82.9241	0.0482445
84.8525	0.0466601
86.781	0.045148
88.7095	0.0477357
90.6379	0.0503432
92.5664	0.0493168
94.4948	0.0502357
96.4233	0.0502021
98.3518	0.0523521
100.28	0.0529127
102.209	0.053871
104.137	0.0539491
106.066	0.0540882
107.994	0.0555856
109.923	0.0583949
111.851	0.0592035
113.779	0.0605684
115.708	0.0633517
117.636	0.0654656
119.565	0.0647793
121.493	0.0659743
123.422	0.067122
125.35	0.0676434
127.279	0.0687522
129.207	0.0716683
131.136	0.0738535
133.064	0.0753878
134.993	0.0756405
136.921	0.0761318
138.85	0.0749083
140.778	0.0755714
142.707	0.0765748
144.635	0.0774945
146.563	0.0772982
148.492	0.0789539
150.42	0.0790376
152.349	0.078718
154.277	0.0795643
156.206	0.0809481
158.134	0.0808851
160.063	0.0816081
161.991	0.0810994
163.92	0.0818572
165.848	0.0835862
167.777	0.0857134
169.705	0.0865632
171.633	0.0867025
173.562	0.0869745
175.49	0.0876184
177.419	0.0873264
179.347	0.087691
181.276	0.0880177
183.204	0.0892884
185.133	0.0902475
187.061	0.0923516
188.99	0.0944111
190.918	0.0960676
192.847	0.0980596
194.775	0.0992771
196.704	0.0990187
198.632	0.0986868
200.56	0.0979626
202.489	0.0974038
204.417	0.096745
206.346	0.0969384
208.274	0.0968379
210.203	0.0969416
212.131	0.0973051
214.06	0.0986818
215.988	0.0990383
217.917	0.0996317
219.845	0.0999639
221.774	0.10109
223.702	0.102707
225.631	0.104053
227.559	0.105066
229.488	0.106074
231.416	0.106484
233.344	0.106788
235.273	0.106563
237.201	0.107111
239.13	0.107809
241.058	0.108872
242.987	0.110214
244.915	0.112486
246.844	0.113821
248.772	0.114322
250.701	0.113949
252.629	0.112727
254.558	0.111056
256.486	0.109795
258.414	0.107914
260.343	0.107027
262.271	0.107128
264.2	0.107836
266.128	0.108901
268.057	0.110975
269.985	0.113616
271.914	0.116708
273.842	0.120059
275.771	0.123348
277.699	0.12581
279.628	0.128515
281.556	0.130703
283.485	0.132571
285.413	0.134447
287.341	0.136238
289.27	0.137609
291.198	0.139143
293.127	0.139858
295.055	0.140007
296.984	0.140577
298.912	0.141412
300.841	0.141101
302.769	0.141173
304.698	0.141465
306.626	0.142262
308.555	0.142566
310.483	0.142817
312.411	0.142959
314.34	0.143661
316.269	0.143902
318.197	0.143507
320.125	0.143746
322.054	0.144893
323.982	0.145696
325.911	0.146446
327.839	0.147203
329.768	0.147833
331.696	0.148548
333.625	0.149263
335.553	0.149448
337.482	0.149161
339.41	0.148624
341.339	0.148616
343.267	0.147885
345.195	0.147458
347.124	0.146714
349.052	0.146077
350.981	0.144407
352.909	0.142783
354.838	0.14144
356.766	0.14033
358.695	0.138886
360.623	0.13741
362.552	0.135682
364.48	0.134298
366.409	0.132822
368.337	0.13092
370.265	0.128824
372.194	0.126929
374.122	0.124405
376.051	0.12158
377.979	0.118643
379.908	0.116419
381.836	0.114722
383.765	0.114572
385.693	0.116073
387.622	0.119073
389.55	0.123147
391.479	0.128358
393.407	0.133845
395.336	0.138817
397.264	0.14294
399.192	0.146394
401.121	0.149014
403.049	0.151022
404.978	0.151878
406.906	0.151623
408.835	0.150974
410.763	0.150359
412.692	0.148972
414.62	0.147914
416.549	0.146989
418.477	0.145714
420.406	0.14368
422.334	0.141969
424.262	0.140339
426.191	0.138698
428.12	0.136899
430.048	0.135209
431.976	0.133798
433.905	0.133095
435.833	0.132497
437.762	0.132391
439.69	0.133459
441.619	0.135768
443.547	0.13845
445.476	0.141892
447.404	0.145876
449.333	0.149812
451.261	0.153461
453.19	0.156841
455.118	0.159447
457.046	0.162147
458.975	0.164505
460.903	0.166344
462.832	0.167599
464.76	0.169132
466.689	0.170211
468.617	0.170887
470.546	0.171213
472.474	0.170845
474.403	0.17062
476.331	0.1711
478.26	0.170969
480.188	0.170493
482.116	0.170499
484.045	0.170582
485.974	0.170434
487.902	0.170206
489.83	0.170604
491.759	0.171263
493.687	0.172029
495.616	0.173105
497.544	0.17411
499.473	0.175586
501.401	0.177243
503.33	0.179184
505.258	0.181024
507.187	0.183259
509.115	0.184847
511.043	0.186234
512.972	0.188426
514.9	0.190653
516.829	0.193028
518.757	0.19561
520.686	0.197164
522.614	0.1982
524.543	0.199727
526.471	0.202094
528.4	0.203676
530.328	0.204367
532.257	0.204747
534.185	0.20641
536.114	0.208201
538.042	0.209129
539.971	0.209301
541.899	0.209475
543.827	0.210145
545.756	0.211233
547.684	0.211994
549.613	0.212377
551.541	0.212631
553.47	0.212869
555.398	0.213342
557.327	0.213608
559.255	0.213563
561.184	0.213079
563.112	0.212705
565.041	0.213185
566.969	0.213164
568.898	0.212794
570.826	0.212689
572.755	0.212841
574.683	0.213001
576.611	0.212289
578.54	0.211148
580.468	0.21045
582.397	0.210042
584.325	0.209904
586.254	0.209461
588.182	0.208757
590.111	0.208181
592.039	0.206989
593.968	0.20557
595.896	0.20442
597.824	0.203253
599.753	0.202229
601.682	0.200872
603.61	0.198585
605.538	0.195545
607.467	0.193906
609.395	0.192335
611.324	0.191125
613.252	0.1897
615.181	0.187769
617.109	0.185655
619.038	0.183785
620.966	0.182584
622.894	0.182204
624.823	0.181976
626.751	0.181639
628.68	0.182386
630.608	0.182972
632.537	0.182839
634.465	0.181897
636.394	0.180461
638.322	0.179403
640.251	0.177944
642.179	0.176857
644.108	0.176052
646.036	0.174737
647.965	0.173408
649.893	0.172039
651.822	0.171047
653.75	0.170396
655.678	0.169429
657.607	0.168547
659.535	0.168322
661.464	0.16785
663.392	0.167618
665.321	0.168047
667.249	0.168306
669.178	0.169352
671.106	0.17061
673.035	0.171896
674.963	0.173737
676.892	0.175426
678.82	0.177271
680.749	0.17908
682.677	0.180046
684.606	0.180379
686.534	0.180547
688.462	0.181088
690.391	0.180531
692.319	0.179569
694.248	0.178883
696.176	0.177193
698.105	0.17334
700.033	0.170762
