Measurement: Infrared, Infrared Data Processed
Mineral: Strontianite
Rruff sample: R050476
Ideal chemistry: SrCO_3_
Locality: Fidalgo Island, Puget Sound, Washington, USA
Source: California Institute of Technology
Description: Aggregate of colorless spheres
Measured chemistry: (Sr_0.86_Ca_0.14_)CO_3_
x	intensity
372.194	0
381.836	0.0137498
391.479	0.00883242
401.121	0.00750869
410.763	0.00768781
420.406	0.00617525
430.048	0.00605509
439.69	0.00471878
449.333	0.0039772
458.975	0.00486714
468.617	0.00470344
478.26	0.00410369
487.902	0.00409222
497.544	0.00440689
507.187	0.00425731
516.829	0.00456513
526.471	0.00447446
536.114	0.00466137
545.756	0.00481625
555.398	0.00460566
565.041	0.00531959
574.683	0.00516342
584.325	0.00520462
593.968	0.00598972
603.61	0.00636877
613.252	0.00651217
622.895	0.00671304
632.537	0.00692866
642.179	0.0070175
651.822	0.00735673
661.464	0.00736177
671.106	0.00777623
680.749	0.00888488
690.391	0.0130909
700.033	0.0496095
709.676	0.0290222
719.318	0.00628634
728.96	0.00617442
738.603	0.0061536
748.245	0.006651
757.887	0.00687812
767.53	0.00732026
777.172	0.0077349
786.814	0.00818305
796.457	0.00911126
806.099	0.00970843
815.741	0.0114252
825.384	0.0147366
835.026	0.0257276
844.668	0.0610182
854.311	0.17388
863.953	0.089536
873.595	0.0159929
883.238	0.0111931
892.88	0.00985243
902.522	0.00931799
912.165	0.00931777
921.807	0.0092973
931.449	0.00943903
941.092	0.00995119
950.734	0.0101797
960.376	0.0106175
970.019	0.011111
979.661	0.0116457
989.303	0.0122437
998.946	0.0126777
1008.59	0.0131315
1018.23	0.0141515
1027.87	0.0148526
1037.52	0.0157814
1047.16	0.0168323
1056.8	0.0182823
1066.44	0.0220343
1076.08	0.0253024
1085.73	0.0192882
1095.37	0.0193515
1105.01	0.0202369
1114.65	0.0209135
1124.3	0.0229151
1133.94	0.0241384
1143.58	0.0248783
1153.22	0.026235
1162.87	0.0275336
1172.51	0.0276148
1182.15	0.0283245
1191.79	0.0301097
1201.43	0.0311124
1211.08	0.0326465
1220.72	0.0352666
1230.36	0.038003
1240	0.041357
1249.65	0.0451309
1259.29	0.0490196
1268.93	0.0535463
1278.57	0.0588512
1288.22	0.0652358
1297.86	0.0719252
1307.5	0.0795502
1317.14	0.088778
1326.79	0.098915
1336.43	0.110178
1346.07	0.12392
1355.71	0.141147
1365.35	0.161319
1375	0.185314
1384.64	0.211738
1394.28	0.239706
1403.92	0.268256
1413.57	0.302022
1423.21	0.341718
1432.85	0.375362
1442.49	0.378709
1452.13	0.35702
1461.78	0.313708
1471.42	0.267406
1481.06	0.22663
1490.7	0.190649
1500.35	0.15892
1509.99	0.129884
1519.63	0.103366
1529.27	0.0793685
1538.92	0.057685
1548.56	0.0383472
1558.2	0.0218134
1567.84	0.0124963
1577.49	0.00882251
1587.13	0.00751871
1596.77	0.00685646
1606.41	0.00604625
1616.06	0.00474631
1625.7	0.00401102
1635.34	0.00333823
1644.98	0.00287065
1654.62	0.00169305
1664.27	0.0014813
1673.91	0.00100008
1683.55	0.000710349
1693.19	8.41022e-05
1702.84	-0.000802504
1712.48	-0.0012109
1722.12	-0.00149806
1731.76	-0.0020913
1741.4	-0.00232145
1751.05	-0.00227374
1760.69	0.00113775
1770.33	0.0132386
1779.97	0.00774303
1789.62	-0.000797435
1799.26	-0.00165577
1808.9	-0.00232442
1818.54	-0.00214153
1828.19	-0.00225486
1837.83	-0.00164672
1847.47	-0.00179377
1857.11	-0.00173658
1866.76	-0.00156591
1876.4	-0.00125325
1886.04	-0.00189301
1895.68	-0.00155594
1905.33	-0.00112978
1914.97	-0.00117884
1924.61	-0.00185722
1934.25	-0.0017413
1943.89	-0.00117484
1953.54	-0.00204871
1963.18	-0.00126366
1972.82	-0.00155421
1982.46	-0.000499799
1992.11	0.000378828
2001.75	-0.000398926
2011.39	0.00045444
2021.03	-0.000666785
2030.67	0.000106652
2040.32	0.00120275
2049.96	0.00122557
2059.6	0.000410917
2069.24	0.000691238
2078.89	0.00142367
2088.53	0.000299069
2098.17	0.000304205
2107.81	0.000239095
2117.46	0.00050164
2127.1	-6.94901e-05
2136.74	0.000398612
2146.38	-0.00210309
2156.03	-0.00130283
2165.67	0.00270166
2175.31	0.000896628
2184.95	0.00286143
2194.59	0.00209761
2204.24	0.000413396
2213.88	0.00108457
2223.52	0.00192172
2233.16	0.000764435
2242.81	0.000697903
2252.45	0.000683352
2262.09	0.00125663
2271.73	0.00158921
2281.38	0.00153554
2291.02	0.001944
2300.66	0.00178637
2310.3	0.00175352
2319.95	0.00214578
2329.59	0.00083962
2339.23	0.000869471
2348.87	0.000892451
2358.51	0.000520514
2368.16	0.00058961
2377.8	0.000114798
2387.44	0.000182592
2397.08	0.000281838
2406.73	0.000786657
2416.37	0.000906717
2426.01	0.0011279
2435.65	0.000731341
2445.3	0.00158728
2454.94	0.00200159
2464.58	0.0040799
2474.22	0.00651523
2483.86	0.00916554
2493.51	0.00889011
2503.15	0.00674311
2512.79	0.00561358
2522.43	0.00423826
2532.08	0.00332772
2541.72	0.00213479
2551.36	0.00174859
2561	0.00272213
2570.65	0.00215481
2580.29	0.00215022
2589.93	0.00238294
2599.57	0.00188878
2609.22	0.00174953
2618.86	0.00131477
2628.5	0.000895578
2638.14	0.000305459
2647.78	0.000928665
2657.43	0.000659957
2667.07	-0.000586545
2676.71	-0.000204502
2686.35	-0.000175336
2696	-0.000394679
2705.64	-0.000276623
2715.28	-0.000685539
2724.92	-0.000279046
2734.57	-0.000528213
2744.21	-0.000713288
2753.85	-0.0005147
2763.49	-0.0012022
2773.14	-0.000909044
2782.78	-0.00130095
2792.42	-0.00134797
2802.06	-0.00142079
2811.7	-0.00129242
2821.35	-0.00168779
2830.99	-0.0012623
2840.63	-0.00150352
2850.27	-0.00475625
2859.92	-0.00367647
2869.56	-0.00165776
2879.2	-1.71718e-05
2888.84	-0.000128736
2898.49	-0.00189591
2908.13	-0.00382261
2917.77	-0.00668258
2927.41	-0.00730602
2937.05	-0.00483349
2946.7	-0.00257821
2956.34	-0.00369514
2965.98	-0.00198137
2975.62	-0.00145808
2985.27	-0.000791663
2994.91	-0.00111867
3004.55	-0.000680167
3014.19	-0.00127006
3023.84	-0.000528706
3033.48	-8.09092e-05
3043.12	0.0010537
3052.76	0.00141301
3062.41	0.00160643
3072.05	0.00163706
3081.69	0.00213107
3091.33	0.00180682
3100.97	0.00318638
3110.62	0.00323927
3120.26	0.0033629
3129.9	0.00386461
3139.54	0.00413317
3149.19	0.00436912
3158.83	0.0054866
3168.47	0.00448203
3178.11	0.00475823
3187.76	0.00485905
3197.4	0.00546531
3207.04	0.00500479
3216.68	0.00497342
3226.32	0.00556434
3235.97	0.00533049
3245.61	0.00530568
3255.25	0.00645025
3264.89	0.00525761
3274.54	0.0060106
3284.18	0.00576681
3293.82	0.00588752
3303.46	0.00577144
3313.11	0.00652176
3322.75	0.00555158
3332.39	0.00575303
3342.03	0.00500432
3351.68	0.00593997
3361.32	0.00542541
3370.96	0.00614384
3380.6	0.00570311
3390.24	0.00575524
3399.89	0.00536532
3409.53	0.00596673
3419.17	0.00600692
3428.81	0.00482352
3438.46	0.00493905
3448.1	0.00529155
3457.74	0.00497686
3467.38	0.0055363
3477.03	0.00467129
3486.67	0.00387697
3496.31	0.00457043
3505.95	0.00366993
3515.59	0.00388205
3525.24	0.00339661
3534.88	0.00368319
3544.52	0.00331209
3554.16	0.00246795
3563.81	0.00343448
3573.45	0.00244754
3583.09	0.00362929
3592.73	0.00198903
3602.38	0.00243998
3612.02	0.0015105
3621.66	0.00231783
3631.3	0.00215435
3640.95	0.00188877
3650.59	0.00210729
3660.23	0.00113703
3669.87	0.00233322
3679.51	0.00223728
3689.16	0.00261408
3698.8	0.00197977
3708.44	0.00249212
3718.08	0.00301086
3727.73	0.0037493
3737.37	0.0027641
3747.01	0.00315718
3756.65	0.0031476
3766.3	0.00296539
3775.94	0.00282133
3785.58	0.00371257
3795.22	0.00293639
3804.86	0.0028096
3814.51	0.00201449
3824.15	0.00230201
3833.79	0.0018287
3843.43	0.00309221
3853.08	0.0022656
3862.72	0.00257747
3872.36	0.00249293
3882	0.00270397
3891.65	0.00176929
3901.29	0.00179917
3910.93	0.00271399
3920.57	0.00192302
3930.22	0.00214848
3939.86	0.00182192
3949.5	0.00303622
3959.14	0.000672704
3968.78	0.00155742
3978.43	0.00119973
3988.07	0.00151486
3997.71	0.00150978
