Measurement: Infrared, Infrared Data Processed
Mineral: Sulphur
Rruff sample: R050006
Ideal chemistry: S
Locality: San Felipe, Mexicali, Baja California Norte, Mexico
Source: Eugene Schlepp
Description: Yellow single crystal
Measured chemistry: S_1.00_
x	intensity
399.193	0.11072
408.835	0.109943
418.477	0.11002
428.12	0.112723
437.762	0.114487
447.404	0.115689
457.047	0.125613
466.689	0.141178
476.331	0.10904
485.974	0.112313
495.616	0.116208
505.258	0.118863
514.901	0.120554
524.543	0.121939
534.185	0.123705
543.828	0.12627
553.47	0.127582
563.112	0.129169
572.755	0.130538
582.397	0.132907
592.039	0.133441
601.682	0.134584
611.324	0.13694
620.966	0.138401
630.609	0.140097
640.251	0.141975
649.893	0.144257
659.536	0.144936
669.178	0.146024
678.82	0.148011
688.463	0.148847
698.105	0.150761
707.747	0.152795
717.39	0.154058
727.032	0.155699
736.674	0.157013
746.317	0.159301
755.959	0.160843
765.601	0.162665
775.244	0.164924
784.886	0.166604
794.528	0.169031
804.171	0.171121
813.813	0.173245
823.455	0.176221
833.098	0.179053
842.74	0.181157
852.382	0.179827
862.025	0.180232
871.667	0.181826
881.309	0.183368
890.952	0.184837
900.594	0.187185
910.236	0.188453
919.879	0.190445
929.521	0.192481
939.163	0.19443
948.806	0.195318
958.448	0.197466
968.09	0.199256
977.733	0.200995
987.375	0.20301
997.017	0.204697
1006.66	0.20665
1016.3	0.208611
1025.94	0.210126
1035.59	0.212693
1045.23	0.214295
1054.87	0.21628
1064.51	0.218012
1074.16	0.219517
1083.8	0.221308
1093.44	0.222695
1103.08	0.224272
1112.72	0.225858
1122.37	0.227811
1132.01	0.229848
1141.65	0.232426
1151.3	0.234349
1160.94	0.234845
1170.58	0.235906
1180.22	0.237536
1189.86	0.239682
1199.51	0.241639
1209.15	0.243248
1218.79	0.24473
1228.43	0.246236
1238.08	0.247686
1247.72	0.24887
1257.36	0.250264
1267	0.251625
1276.64	0.253457
1286.29	0.255101
1295.93	0.256884
1305.57	0.258721
1315.21	0.260174
1324.86	0.26193
1334.5	0.263547
1344.14	0.265118
1353.78	0.26711
1363.43	0.268921
1373.07	0.270725
1382.71	0.272483
1392.35	0.274231
1401.99	0.27639
1411.64	0.278046
1421.28	0.279595
1430.92	0.281601
1440.57	0.28341
1450.21	0.285336
1459.85	0.286976
1469.49	0.28822
1479.13	0.289496
1488.78	0.290953
1498.42	0.292905
1508.06	0.29439
1517.7	0.295858
1527.35	0.297561
1536.99	0.29932
1546.63	0.301199
1556.27	0.302859
1565.91	0.304774
1575.56	0.306702
1585.2	0.30902
1594.84	0.31118
1604.48	0.313119
1614.13	0.314797
1623.77	0.316488
1633.41	0.318173
1643.05	0.319675
1652.7	0.321851
1662.34	0.323538
1671.98	0.324108
1681.62	0.325559
1691.27	0.327457
1700.91	0.328614
1710.55	0.330466
1720.19	0.332044
1729.84	0.333818
1739.48	0.335565
1749.12	0.336104
1758.76	0.337563
1768.4	0.33934
1778.05	0.340391
1787.69	0.342434
1797.33	0.343289
1806.97	0.345402
1816.62	0.347173
1826.26	0.348856
1835.9	0.35069
1845.54	0.352586
1855.18	0.354682
1864.83	0.35621
1874.47	0.35722
1884.11	0.359174
1893.75	0.360925
1903.4	0.363024
1913.04	0.363994
1922.68	0.364301
1932.32	0.365315
1941.97	0.367375
1951.61	0.367258
1961.25	0.369475
1970.89	0.36713
1980.54	0.3725
1990.18	0.373944
1999.82	0.374576
2009.46	0.372327
2019.11	0.374564
2028.75	0.376427
2038.39	0.379861
2048.03	0.384951
2057.67	0.38524
2067.32	0.388986
2076.96	0.389217
2086.6	0.392759
2096.24	0.395233
2105.89	0.396578
2115.53	0.398271
2125.17	0.39971
2134.81	0.397927
2144.45	0.398232
2154.1	0.395292
2163.74	0.401009
2173.38	0.4025
2183.02	0.401555
2192.67	0.405875
2202.31	0.412261
2211.95	0.410864
2221.59	0.417575
2231.24	0.417184
2240.88	0.417772
2250.52	0.419911
2260.16	0.423421
2269.8	0.425908
2279.45	0.427528
2289.09	0.429154
2298.73	0.43127
2308.38	0.432879
2318.02	0.434895
2327.66	0.434426
2337.3	0.43759
2346.94	0.439
2356.59	0.44103
2366.23	0.44142
2375.87	0.443887
2385.51	0.445028
2395.16	0.445404
2404.8	0.448396
2414.44	0.449407
2424.08	0.451154
2433.72	0.454341
2443.37	0.454288
2453.01	0.456019
2462.65	0.458831
2472.29	0.459118
2481.94	0.460732
2491.58	0.462798
2501.22	0.463942
2510.86	0.465777
2520.51	0.467164
2530.15	0.468059
2539.79	0.470434
2549.43	0.472134
2559.07	0.474776
2568.72	0.47606
2578.36	0.477265
2588	0.479821
2597.64	0.480348
2607.29	0.482223
2616.93	0.484189
2626.57	0.486235
2636.21	0.486665
2645.86	0.489536
2655.5	0.490891
2665.14	0.492803
2674.78	0.493823
2684.43	0.4957
2694.07	0.497337
2703.71	0.497945
2713.35	0.499506
2722.99	0.501847
2732.64	0.504326
2742.28	0.505601
2751.92	0.507023
2761.56	0.509394
2771.21	0.509537
2780.85	0.512595
2790.49	0.514515
2800.13	0.516174
2809.78	0.516466
2819.42	0.519809
2829.06	0.521095
2838.7	0.524034
2848.34	0.524985
2857.99	0.525616
2867.63	0.527483
2877.27	0.529033
2886.91	0.530631
2896.56	0.533522
2906.2	0.534869
2915.84	0.536758
2925.48	0.536824
2935.13	0.536742
2944.77	0.539018
2954.41	0.538076
2964.05	0.541
2973.7	0.541847
2983.34	0.543237
2992.98	0.544732
3002.62	0.547385
3012.26	0.549253
3021.91	0.55045
3031.55	0.552626
3041.19	0.552481
3050.83	0.555452
3060.48	0.55697
3070.12	0.55835
3079.76	0.560628
3089.4	0.562952
3099.05	0.563482
3108.69	0.5648
3118.33	0.5671
3127.97	0.568613
3137.61	0.571228
3147.26	0.571905
3156.9	0.573914
3166.54	0.577077
3176.18	0.577141
3185.83	0.579882
3195.47	0.58227
3205.11	0.583822
3214.75	0.58524
3224.4	0.587107
3234.04	0.590225
3243.68	0.588927
3253.32	0.591742
3262.97	0.593745
3272.61	0.595484
3282.25	0.597085
3291.89	0.599513
3301.53	0.599161
3311.18	0.602184
3320.82	0.602635
3330.46	0.601498
3340.1	0.605722
3349.75	0.607724
3359.39	0.607676
3369.03	0.611263
3378.67	0.612275
3388.32	0.613706
3397.96	0.614003
3407.6	0.61554
3417.24	0.616978
3426.89	0.620305
3436.53	0.620062
3446.17	0.621824
3455.81	0.62353
3465.45	0.624993
3475.1	0.625377
3484.74	0.627288
3494.38	0.627871
3504.02	0.629023
3513.67	0.630732
3523.31	0.631542
3532.95	0.632301
3542.59	0.634458
3552.24	0.635157
3561.88	0.639359
3571.52	0.641374
3581.16	0.641335
3590.8	0.641917
3600.45	0.643087
3610.09	0.645369
3619.73	0.645615
3629.37	0.649903
3639.02	0.649765
3648.66	0.650777
3658.3	0.654098
3667.94	0.65478
3677.59	0.656601
3687.23	0.658746
3696.87	0.661023
3706.51	0.661349
3716.16	0.664741
3725.8	0.664404
3735.44	0.66626
3745.08	0.666385
3754.72	0.668513
3764.37	0.670509
3774.01	0.671091
3783.65	0.674275
3793.29	0.674812
3802.94	0.678212
3812.58	0.680004
3822.22	0.680027
3831.86	0.680101
3841.51	0.684043
3851.15	0.684022
3860.79	0.684818
3870.43	0.687571
3880.07	0.688364
3889.72	0.690251
3899.36	0.691114
3909	0.694773
3918.64	0.696384
3928.29	0.695763
3937.93	0.698042
3947.57	0.69853
3957.21	0.702858
3966.86	0.702569
3976.5	0.703537
3986.14	0.706786
3995.78	0.710102
