Measurement: Infrared, Infrared Data Processed
Mineral: Teallite
Rruff sample: R050434
Ideal chemistry: PbSnS_2_
Locality: Carhuaycollo, Carguaicollo District, Potosi, Bolivia
Source: University of Arizona Mineral Museum
Description: Grayish black massive aggregate of thin folia with warped and bent crystals
Measured chemistry: (Pb_0.71_Sn_1.29_)_Î£=2_S_2.00_
x	intensity
399.193	0.318897
408.835	0.344739
418.477	0.329898
428.12	0.352722
437.762	0.361419
447.404	0.370195
457.047	0.381299
466.689	0.386555
476.331	0.393114
485.974	0.398231
495.616	0.403647
505.258	0.412469
514.901	0.419781
524.543	0.426248
534.185	0.427074
543.828	0.437196
553.47	0.439447
563.112	0.443386
572.755	0.446987
582.397	0.456895
592.039	0.459164
601.682	0.46537
611.324	0.472145
620.966	0.474025
630.609	0.479716
640.251	0.482958
649.893	0.483535
659.536	0.486297
669.178	0.487018
678.82	0.491289
688.463	0.492389
698.105	0.49676
707.747	0.49812
717.39	0.500457
727.032	0.501251
736.674	0.503687
746.317	0.505379
755.959	0.510681
765.601	0.512915
775.244	0.516744
784.886	0.521935
794.528	0.528944
804.171	0.532265
813.813	0.537803
823.455	0.542578
833.098	0.548292
842.74	0.551853
852.382	0.555307
862.025	0.561108
871.667	0.565414
881.309	0.569993
890.952	0.57338
900.594	0.578219
910.236	0.583744
919.879	0.587809
929.521	0.592166
939.163	0.595968
948.806	0.598074
958.448	0.602571
968.09	0.607418
977.733	0.610882
987.375	0.614882
997.017	0.618721
1006.66	0.624787
1016.3	0.630245
1025.94	0.63274
1035.59	0.637972
1045.23	0.642047
1054.87	0.644174
1064.51	0.646923
1074.16	0.650505
1083.8	0.652685
1093.44	0.656901
1103.08	0.659299
1112.72	0.661634
1122.37	0.666898
1132.01	0.671425
1141.65	0.678809
1151.3	0.682354
1160.94	0.682714
1170.58	0.683902
1180.22	0.686919
1189.86	0.691345
1199.51	0.695595
1209.15	0.697658
1218.79	0.699899
1228.43	0.702826
1238.08	0.705484
1247.72	0.708821
1257.36	0.710542
1267	0.712561
1276.64	0.71642
1286.29	0.719231
1295.93	0.722254
1305.57	0.723695
1315.21	0.726709
1324.86	0.72955
1334.5	0.733281
1344.14	0.737191
1353.78	0.740613
1363.43	0.744491
1373.07	0.749709
1382.71	0.751354
1392.35	0.753124
1401.99	0.756065
1411.64	0.758275
1421.28	0.761936
1430.92	0.765641
1440.57	0.770336
1450.21	0.774445
1459.85	0.777654
1469.49	0.77859
1479.13	0.778269
1488.78	0.782963
1498.42	0.785458
1508.06	0.79034
1517.7	0.792337
1527.35	0.79642
1536.99	0.799231
1546.63	0.803442
1556.27	0.806754
1565.91	0.808726
1575.56	0.811463
1585.2	0.814915
1594.84	0.816607
1604.48	0.820933
1614.13	0.823574
1623.77	0.826546
1633.41	0.830487
1643.05	0.832044
1652.7	0.835179
1662.34	0.835995
1671.98	0.837531
1681.62	0.840548
1691.27	0.842945
1700.91	0.846484
1710.55	0.84807
1720.19	0.850949
1729.84	0.853524
1739.48	0.855405
1749.12	0.855914
1758.76	0.856835
1768.4	0.860245
1778.05	0.862828
1787.69	0.863196
1797.33	0.864167
1806.97	0.8663
1816.62	0.867619
1826.26	0.868504
1835.9	0.870925
1845.54	0.872828
1855.18	0.871378
1864.83	0.876637
1874.47	0.878092
1884.11	0.878442
1893.75	0.87957
1903.4	0.878952
1913.04	0.88179
1922.68	0.880007
1932.32	0.877795
1941.97	0.873966
1951.61	0.870751
1961.25	0.85905
1970.89	0.85864
1980.54	0.860398
1990.18	0.868179
1999.82	0.872625
2009.46	0.862106
2019.11	0.874022
2028.75	0.865775
2038.39	0.876588
2048.03	0.890391
2057.67	0.901081
2067.32	0.90982
2076.96	0.91612
2086.6	0.92515
2096.24	0.928068
2105.89	0.926975
2115.53	0.924841
2125.17	0.929865
2134.81	0.921094
2144.45	0.913456
2154.1	0.900709
2163.74	0.897276
2173.38	0.92068
2183.02	0.915033
2192.67	0.924159
2202.31	0.935689
2211.95	0.938304
2221.59	0.94824
2231.24	0.952343
2240.88	0.957911
2250.52	0.963192
2260.16	0.968127
2269.8	0.975172
2279.45	0.986303
2289.09	0.992468
2298.73	0.997464
2308.38	1.00173
2318.02	1.00842
2327.66	1.01199
2337.3	1.01569
2346.94	1.01742
2356.59	1.02172
2366.23	1.02096
2375.87	1.02354
2385.51	1.02336
2395.16	1.02828
2404.8	1.0303
2414.44	1.02922
2424.08	1.0329
2433.72	1.03376
2443.37	1.03628
2453.01	1.04032
2462.65	1.04299
2472.29	1.04368
2481.94	1.04849
2491.58	1.04581
2501.22	1.05485
2510.86	1.05697
2520.51	1.05737
2530.15	1.06115
2539.79	1.0619
2549.43	1.06651
2559.07	1.06781
2568.72	1.07056
2578.36	1.07497
2588	1.07822
2597.64	1.08207
2607.29	1.0859
2616.93	1.08881
2626.57	1.09571
2636.21	1.0995
2645.86	1.10382
2655.5	1.10909
2665.14	1.11059
2674.78	1.11447
2684.43	1.11582
2694.07	1.12062
2703.71	1.12264
2713.35	1.12495
2722.99	1.12697
2732.64	1.12995
2742.28	1.13263
2751.92	1.13514
2761.56	1.13862
2771.21	1.14182
2780.85	1.14118
2790.49	1.1459
2800.13	1.1505
2809.78	1.15152
2819.42	1.15626
2829.06	1.16116
2838.7	1.16546
2848.34	1.17407
2857.99	1.17095
2867.63	1.17428
2877.27	1.1767
2886.91	1.1822
2896.56	1.18693
2906.2	1.19023
2915.84	1.19255
2925.48	1.19334
2935.13	1.19451
2944.77	1.19575
2954.41	1.2014
2964.05	1.20007
2973.7	1.19706
2983.34	1.19675
2992.98	1.20399
3002.62	1.20113
3012.26	1.20561
3021.91	1.20693
3031.55	1.2094
3041.19	1.21305
3050.83	1.21713
3060.48	1.21946
3070.12	1.22015
3079.76	1.2241
3089.4	1.22914
3099.05	1.23029
3108.69	1.2325
3118.33	1.23481
3127.97	1.23986
3137.61	1.24272
3147.26	1.24792
3156.9	1.24417
3166.54	1.25193
3176.18	1.25492
3185.83	1.26004
3195.47	1.25664
3205.11	1.26285
3214.75	1.26819
3224.4	1.2637
3234.04	1.26973
3243.68	1.27516
3253.32	1.27782
3262.97	1.27923
3272.61	1.28139
3282.25	1.28651
3291.89	1.29123
3301.53	1.30138
3311.18	1.29959
3320.82	1.29741
3330.46	1.30551
3340.1	1.30816
3349.75	1.30319
3359.39	1.30709
3369.03	1.31354
3378.67	1.31753
3388.32	1.31905
3397.96	1.31924
3407.6	1.31817
3417.24	1.3254
3426.89	1.33237
3436.53	1.33441
3446.17	1.33818
3455.81	1.33804
3465.45	1.33965
3475.1	1.34415
3484.74	1.34673
3494.38	1.34442
3504.02	1.34791
3513.67	1.35016
3523.31	1.3517
3532.95	1.35954
3542.59	1.35759
3552.24	1.36013
3561.88	1.36983
3571.52	1.36867
3581.16	1.36996
3590.8	1.37222
3600.45	1.3677
3610.09	1.37668
3619.73	1.3729
3629.37	1.38465
3639.02	1.38978
3648.66	1.38838
3658.3	1.38806
3667.94	1.38942
3677.59	1.39691
3687.23	1.39734
3696.87	1.40069
3706.51	1.40805
3716.16	1.41413
3725.8	1.41733
3735.44	1.41427
3745.08	1.42075
3754.72	1.42063
3764.37	1.43028
3774.01	1.43406
3783.65	1.43604
3793.29	1.44122
3802.94	1.44284
3812.58	1.44179
3822.22	1.45484
3831.86	1.45063
3841.51	1.45036
3851.15	1.45581
3860.79	1.46678
3870.43	1.4684
3880.07	1.4785
3889.72	1.47363
3899.36	1.483
3909	1.47474
3918.64	1.48594
3928.29	1.48484
3937.93	1.4911
3947.57	1.49151
3957.21	1.49776
3966.86	1.4994
3976.5	1.50556
3986.14	1.50463
3995.78	1.51169
