Measurement: Infrared, Infrared Data Processed
Mineral: Tennantite-(Zn)
Rruff sample: R050558
Ideal chemistry: Cu^1+^_6_(Cu^1+^_4_Zn^2+^_2_)As^3+^_4_S^2-^_13_
Locality: Casaplaca mine, Huarochiri Province, Lima Department, Peru
Source: Dave Bunk Minerals
Description: Group of black tetrahedra
Measured chemistry: (Cu_10.07_Zn_1.83_Fe_0.10_)_Σ=12_(As_2.97_Sb_1.03_)_Σ=4_S_13.00_ ; = light phase. Dark phase = (Cu_10.09_Zn_1.80_Fe_0.11_)_Σ=12_(As_2.85_Sb_1.15_)_Σ=4_S_13.00_
x	intensity
399.193	0.143292
408.835	0.165922
418.477	0.181063
428.12	0.191412
437.762	0.203718
447.404	0.2169
457.047	0.220629
466.689	0.230571
476.331	0.232512
485.974	0.238013
495.616	0.240722
505.258	0.248659
514.901	0.250979
524.543	0.251066
534.185	0.257249
543.828	0.257026
553.47	0.260764
563.112	0.263983
572.755	0.264958
582.397	0.272823
592.039	0.282594
601.682	0.278743
611.324	0.279345
620.966	0.283196
630.609	0.283116
640.251	0.282534
649.893	0.285068
659.536	0.288201
669.178	0.291056
678.82	0.289491
688.463	0.287348
698.105	0.290303
707.747	0.293915
717.39	0.295636
727.032	0.298312
736.674	0.301451
746.317	0.305143
755.959	0.308172
765.601	0.312417
775.244	0.3155
784.886	0.319247
794.528	0.32172
804.171	0.323765
813.813	0.323169
823.455	0.323427
833.098	0.322782
842.74	0.323076
852.382	0.323337
862.025	0.324647
871.667	0.324047
881.309	0.323916
890.952	0.324997
900.594	0.325374
910.236	0.32529
919.879	0.325911
929.521	0.326271
939.163	0.32719
948.806	0.329638
958.448	0.333154
968.09	0.336162
977.733	0.339652
987.375	0.343422
997.017	0.346262
1006.66	0.351879
1016.3	0.357956
1025.94	0.358338
1035.59	0.364021
1045.23	0.37153
1054.87	0.377385
1064.51	0.384105
1074.16	0.387006
1083.8	0.390151
1093.44	0.391614
1103.08	0.393436
1112.72	0.394317
1122.37	0.391278
1132.01	0.386923
1141.65	0.383435
1151.3	0.380343
1160.94	0.376144
1170.58	0.371053
1180.22	0.366399
1189.86	0.363023
1199.51	0.359325
1209.15	0.352664
1218.79	0.345604
1228.43	0.340969
1238.08	0.338929
1247.72	0.339783
1257.36	0.342485
1267	0.344591
1276.64	0.347265
1286.29	0.349216
1295.93	0.351592
1305.57	0.353079
1315.21	0.355031
1324.86	0.356805
1334.5	0.358557
1344.14	0.360754
1353.78	0.362944
1363.43	0.36482
1373.07	0.366385
1382.71	0.368312
1392.35	0.369195
1401.99	0.370964
1411.64	0.372476
1421.28	0.373884
1430.92	0.375598
1440.57	0.377955
1450.21	0.379887
1459.85	0.381674
1469.49	0.381393
1479.13	0.382602
1488.78	0.384006
1498.42	0.385614
1508.06	0.387207
1517.7	0.38744
1527.35	0.389474
1536.99	0.390173
1546.63	0.391386
1556.27	0.393108
1565.91	0.393947
1575.56	0.396161
1585.2	0.397347
1594.84	0.39791
1604.48	0.400035
1614.13	0.401636
1623.77	0.402769
1633.41	0.404124
1643.05	0.404673
1652.7	0.405402
1662.34	0.405395
1671.98	0.405414
1681.62	0.405405
1691.27	0.405634
1700.91	0.408216
1710.55	0.409161
1720.19	0.40906
1729.84	0.411197
1739.48	0.412159
1749.12	0.411776
1758.76	0.410957
1768.4	0.411185
1778.05	0.412483
1787.69	0.413235
1797.33	0.413797
1806.97	0.413971
1816.62	0.414427
1826.26	0.415921
1835.9	0.416217
1845.54	0.41732
1855.18	0.417942
1864.83	0.418839
1874.47	0.419915
1884.11	0.420789
1893.75	0.422076
1903.4	0.419985
1913.04	0.421758
1922.68	0.421056
1932.32	0.420588
1941.97	0.418523
1951.61	0.416638
1961.25	0.414158
1970.89	0.411418
1980.54	0.411649
1990.18	0.416662
1999.82	0.417306
2009.46	0.413352
2019.11	0.41212
2028.75	0.414332
2038.39	0.421091
2048.03	0.422105
2057.67	0.429836
2067.32	0.433627
2076.96	0.434789
2086.6	0.435265
2096.24	0.436237
2105.89	0.438953
2115.53	0.436861
2125.17	0.437214
2134.81	0.432371
2144.45	0.432917
2154.1	0.420629
2163.74	0.4226
2173.38	0.4262
2183.02	0.428086
2192.67	0.435935
2202.31	0.437665
2211.95	0.436782
2221.59	0.442913
2231.24	0.443843
2240.88	0.445308
2250.52	0.447669
2260.16	0.449945
2269.8	0.454321
2279.45	0.454657
2289.09	0.458298
2298.73	0.460633
2308.38	0.463064
2318.02	0.466012
2327.66	0.4684
2337.3	0.466524
2346.94	0.467032
2356.59	0.469357
2366.23	0.468081
2375.87	0.468931
2385.51	0.468412
2395.16	0.468114
2404.8	0.46894
2414.44	0.470452
2424.08	0.471222
2433.72	0.472064
2443.37	0.474182
2453.01	0.474797
2462.65	0.474567
2472.29	0.475245
2481.94	0.474877
2491.58	0.476204
2501.22	0.476859
2510.86	0.476166
2520.51	0.478769
2530.15	0.483456
2539.79	0.482766
2549.43	0.482476
2559.07	0.481976
2568.72	0.483028
2578.36	0.482968
2588	0.48796
2597.64	0.488356
2607.29	0.488506
2616.93	0.491256
2626.57	0.491274
2636.21	0.492949
2645.86	0.494276
2655.5	0.495914
2665.14	0.496034
2674.78	0.498826
2684.43	0.497148
2694.07	0.497931
2703.71	0.499235
2713.35	0.499951
2722.99	0.502752
2732.64	0.502095
2742.28	0.502516
2751.92	0.504146
2761.56	0.506243
2771.21	0.50651
2780.85	0.506501
2790.49	0.5086
2800.13	0.509459
2809.78	0.511167
2819.42	0.512053
2829.06	0.514455
2838.7	0.512264
2848.34	0.515093
2857.99	0.514701
2867.63	0.515781
2877.27	0.518254
2886.91	0.516833
2896.56	0.518184
2906.2	0.519815
2915.84	0.52291
2925.48	0.519479
2935.13	0.5177
2944.77	0.519872
2954.41	0.519498
2964.05	0.518841
2973.7	0.522091
2983.34	0.521405
2992.98	0.521034
3002.62	0.522881
3012.26	0.524308
3021.91	0.524725
3031.55	0.527663
3041.19	0.525801
3050.83	0.528175
3060.48	0.529065
3070.12	0.529429
3079.76	0.530455
3089.4	0.531387
3099.05	0.532925
3108.69	0.533459
3118.33	0.534644
3127.97	0.533162
3137.61	0.535952
3147.26	0.537519
3156.9	0.537654
3166.54	0.540505
3176.18	0.536604
3185.83	0.53688
3195.47	0.539668
3205.11	0.536836
3214.75	0.542618
3224.4	0.54163
3234.04	0.541973
3243.68	0.54497
3253.32	0.543345
3262.97	0.546249
3272.61	0.545406
3282.25	0.545799
3291.89	0.548789
3301.53	0.544678
3311.18	0.546005
3320.82	0.546328
3330.46	0.547416
3340.1	0.549884
3349.75	0.54642
3359.39	0.54823
3369.03	0.547164
3378.67	0.541984
3388.32	0.544861
3397.96	0.544492
3407.6	0.546247
3417.24	0.545579
3426.89	0.546197
3436.53	0.54406
3446.17	0.543867
3455.81	0.545042
3465.45	0.547153
3475.1	0.546112
3484.74	0.54624
3494.38	0.546378
3504.02	0.54584
3513.67	0.546776
3523.31	0.543578
3532.95	0.545646
3542.59	0.545281
3552.24	0.544471
3561.88	0.543266
3571.52	0.544416
3581.16	0.550034
3590.8	0.545818
3600.45	0.54396
3610.09	0.551476
3619.73	0.550742
3629.37	0.550998
3639.02	0.548899
3648.66	0.554724
3658.3	0.552158
3667.94	0.55427
3677.59	0.558401
3687.23	0.558366
3696.87	0.561244
3706.51	0.555417
3716.16	0.56273
3725.8	0.561978
3735.44	0.560567
3745.08	0.564564
3754.72	0.568521
3764.37	0.565927
3774.01	0.567377
3783.65	0.568368
3793.29	0.566153
3802.94	0.569507
3812.58	0.566915
3822.22	0.566226
3831.86	0.572333
3841.51	0.571281
3851.15	0.575592
3860.79	0.573719
3870.43	0.575137
3880.07	0.574107
3889.72	0.57704
3899.36	0.578451
3909	0.576716
3918.64	0.585946
3928.29	0.58182
3937.93	0.575139
3947.57	0.582591
3957.21	0.584301
3966.86	0.587121
3976.5	0.58425
3986.14	0.585218
3995.78	0.582151
