Measurement: Infrared, Infrared Data Processed
Mineral: Titanite
Rruff sample: R050039
Ideal chemistry: CaTi^4+^SiO_5_
Locality: Kingman, Arizona, USA
Source: University of Arizona Mineral Museum
Description: Black fragment from a single crystal
Measured chemistry: (Ca_0.95_Y_0.05_)(Ti_0.85_Al_0.10_Fe^3+^_0.06_)Si_1.00_O_4_(O_0.93_F_0.07_)
x	intensity
399.193	0.158282
408.835	0.163537
418.477	0.173021
428.12	0.166709
437.762	0.161185
447.404	0.153985
457.047	0.150854
466.689	0.144916
476.331	0.140071
485.974	0.134866
495.616	0.132074
505.258	0.121986
514.901	0.112352
524.543	0.11038
534.185	0.112324
543.828	0.117601
553.47	0.124677
563.112	0.125105
572.755	0.119113
582.397	0.113215
592.039	0.108814
601.682	0.106387
611.324	0.107083
620.966	0.108312
630.609	0.107586
640.251	0.107238
649.893	0.107828
659.536	0.108746
669.178	0.109963
678.82	0.111864
688.463	0.112474
698.105	0.114163
707.747	0.114492
717.39	0.114713
727.032	0.114837
736.674	0.11527
746.317	0.1164
755.959	0.11773
765.601	0.121453
775.244	0.127845
784.886	0.136816
794.528	0.148723
804.171	0.16246
813.813	0.177748
823.455	0.192086
833.098	0.201998
842.74	0.20841
852.382	0.20958
862.025	0.206099
871.667	0.198946
881.309	0.190448
890.952	0.186606
900.594	0.180574
910.236	0.169765
919.879	0.159041
929.521	0.147386
939.163	0.134396
948.806	0.122987
958.448	0.111811
968.09	0.0995742
977.733	0.0861264
987.375	0.072675
997.017	0.0608625
1006.66	0.0509717
1016.3	0.0436233
1025.94	0.0383858
1035.59	0.0349409
1045.23	0.032457
1054.87	0.0298519
1064.51	0.026924
1074.16	0.0241926
1083.8	0.0216231
1093.44	0.0191363
1103.08	0.0164113
1112.72	0.0142811
1122.37	0.0128063
1132.01	0.0114394
1141.65	0.0100813
1151.3	0.00906303
1160.94	0.00833076
1170.58	0.0075656
1180.22	0.00726405
1189.86	0.00694407
1199.51	0.00693045
1209.15	0.00673486
1218.79	0.00702901
1228.43	0.00686428
1238.08	0.00719211
1247.72	0.00735269
1257.36	0.00728378
1267	0.00701773
1276.64	0.0076361
1286.29	0.00716136
1295.93	0.00779811
1305.57	0.00811952
1315.21	0.00886926
1324.86	0.00878704
1334.5	0.00892055
1344.14	0.00919097
1353.78	0.00997227
1363.43	0.0105378
1373.07	0.0106625
1382.71	0.0109186
1392.35	0.0113021
1401.99	0.0120835
1411.64	0.0120211
1421.28	0.0123656
1430.92	0.012566
1440.57	0.0128147
1450.21	0.0135043
1459.85	0.0135425
1469.49	0.0139325
1479.13	0.0133729
1488.78	0.0133111
1498.42	0.0137085
1508.06	0.0137253
1517.7	0.0138303
1527.35	0.0146893
1536.99	0.0154517
1546.63	0.0159378
1556.27	0.0165922
1565.91	0.0173926
1575.56	0.0172501
1585.2	0.0182967
1594.84	0.0188352
1604.48	0.0191758
1614.13	0.0192523
1623.77	0.0191018
1633.41	0.0196738
1643.05	0.0191804
1652.7	0.0188331
1662.34	0.0195245
1671.98	0.0196707
1681.62	0.0187026
1691.27	0.0186942
1700.91	0.0178744
1710.55	0.0180089
1720.19	0.0182176
1729.84	0.0178241
1739.48	0.0181324
1749.12	0.0183507
1758.76	0.0178075
1768.4	0.0181847
1778.05	0.0187205
1787.69	0.0188636
1797.33	0.0184682
1806.97	0.0185527
1816.62	0.0185063
1826.26	0.019114
1835.9	0.0183374
1845.54	0.0190553
1855.18	0.0200788
1864.83	0.0197677
1874.47	0.0197873
1884.11	0.0191588
1893.75	0.0194179
1903.4	0.019646
1913.04	0.0205411
1922.68	0.0195626
1932.32	0.0190594
1941.97	0.0193575
1951.61	0.019614
1961.25	0.0204912
1970.89	0.0198504
1980.54	0.0222965
1990.18	0.0208533
1999.82	0.0225755
2009.46	0.0224777
2019.11	0.0244911
2028.75	0.0233882
2038.39	0.0268581
2048.03	0.0275971
2057.67	0.0235241
2067.32	0.0243409
2076.96	0.0268622
2086.6	0.0264989
2096.24	0.026693
2105.89	0.0272296
2115.53	0.0257008
2125.17	0.0257661
2134.81	0.0254042
2144.45	0.0259024
2154.1	0.0233267
2163.74	0.0301885
2173.38	0.0259942
2183.02	0.0264015
2192.67	0.03141
2202.31	0.0289172
2211.95	0.0295982
2221.59	0.0329496
2231.24	0.0304337
2240.88	0.0315819
2250.52	0.0293208
2260.16	0.0325171
2269.8	0.0330651
2279.45	0.0334499
2289.09	0.0330569
2298.73	0.033367
2308.38	0.0339808
2318.02	0.0345735
2327.66	0.0331212
2337.3	0.0330814
2346.94	0.0334165
2356.59	0.0336801
2366.23	0.0327964
2375.87	0.033807
2385.51	0.0328308
2395.16	0.0326245
2404.8	0.0345598
2414.44	0.0351008
2424.08	0.034829
2433.72	0.0353317
2443.37	0.0357968
2453.01	0.0370633
2462.65	0.036946
2472.29	0.035593
2481.94	0.0369808
2491.58	0.036189
2501.22	0.0374135
2510.86	0.0378089
2520.51	0.0370315
2530.15	0.0384147
2539.79	0.0366721
2549.43	0.0393519
2559.07	0.0386198
2568.72	0.0403282
2578.36	0.0386563
2588	0.0399682
2597.64	0.0390986
2607.29	0.0403342
2616.93	0.0412536
2626.57	0.0403167
2636.21	0.0406931
2645.86	0.0422442
2655.5	0.041168
2665.14	0.0412538
2674.78	0.0409264
2684.43	0.0403794
2694.07	0.0406664
2703.71	0.04127
2713.35	0.0398171
2722.99	0.0412212
2732.64	0.0419712
2742.28	0.0412466
2751.92	0.0429555
2761.56	0.0431182
2771.21	0.0429437
2780.85	0.0435079
2790.49	0.0426934
2800.13	0.0438777
2809.78	0.0438055
2819.42	0.0444022
2829.06	0.0446235
2838.7	0.045125
2848.34	0.0447065
2857.99	0.0445463
2867.63	0.0466811
2877.27	0.0471635
2886.91	0.0465132
2896.56	0.0479761
2906.2	0.0483884
2915.84	0.0478807
2925.48	0.0481229
2935.13	0.0483756
2944.77	0.0486604
2954.41	0.0475964
2964.05	0.0481881
2973.7	0.0486621
2983.34	0.0495779
2992.98	0.0478832
3002.62	0.0495745
3012.26	0.0484293
3021.91	0.0482308
3031.55	0.0501744
3041.19	0.0478635
3050.83	0.0492251
3060.48	0.0513505
3070.12	0.0510712
3079.76	0.0501841
3089.4	0.0497929
3099.05	0.0498158
3108.69	0.0501948
3118.33	0.0511319
3127.97	0.0518055
3137.61	0.0539576
3147.26	0.0539734
3156.9	0.0544616
3166.54	0.0522284
3176.18	0.0546946
3185.83	0.0548819
3195.47	0.0562739
3205.11	0.0530919
3214.75	0.0554117
3224.4	0.0556296
3234.04	0.0579822
3243.68	0.0548696
3253.32	0.0562461
3262.97	0.0578545
3272.61	0.0596882
3282.25	0.0576286
3291.89	0.0566563
3301.53	0.0602791
3311.18	0.0581612
3320.82	0.0589011
3330.46	0.0581736
3340.1	0.0604246
3349.75	0.0608482
3359.39	0.060074
3369.03	0.0587193
3378.67	0.0615029
3388.32	0.0613038
3397.96	0.0598106
3407.6	0.0595236
3417.24	0.0603399
3426.89	0.0596106
3436.53	0.0595573
3446.17	0.0600046
3455.81	0.0599968
3465.45	0.0592935
3475.1	0.0599038
3484.74	0.06009
3494.38	0.0576892
3504.02	0.0575363
3513.67	0.0565831
3523.31	0.0579546
3532.95	0.0559948
3542.59	0.0581919
3552.24	0.0592488
3561.88	0.0569947
3571.52	0.0575666
3581.16	0.0548565
3590.8	0.0545592
3600.45	0.0570828
3610.09	0.056225
3619.73	0.0531189
3629.37	0.0590518
3639.02	0.0517565
3648.66	0.0563956
3658.3	0.0567657
3667.94	0.055503
3677.59	0.0567039
3687.23	0.0556939
3696.87	0.0546223
3706.51	0.0547921
3716.16	0.0576307
3725.8	0.0562998
3735.44	0.053179
3745.08	0.0583656
3754.72	0.0591947
3764.37	0.0564369
3774.01	0.0559733
3783.65	0.0603905
3793.29	0.0575588
3802.94	0.0595549
3812.58	0.060244
3822.22	0.0590049
3831.86	0.05976
3841.51	0.0610037
3851.15	0.0576912
3860.79	0.0569644
3870.43	0.058138
3880.07	0.0589688
3889.72	0.063494
3899.36	0.0577139
3909	0.0568963
3918.64	0.0593142
3928.29	0.0597697
3937.93	0.0588844
3947.57	0.060401
3957.21	0.0609443
3966.86	0.0631927
3976.5	0.0606418
3986.14	0.0604459
3995.78	0.0610979
