Measurement: Infrared, Infrared Data Processed
Mineral: Titanite
Rruff sample: R040033
Ideal chemistry: CaTi^4+^SiO_5_
Locality: Brazil
Source: University of Arizona Mineral Museum
Description: Green flattened wedge-shaped single crystals
Measured chemistry: (Ca_0.97_Fe^3+^_0.03_)_Σ=1_(Ti_0.97_Al_0.03_)_Σ=1_Si_1.00_O_5_; Fe^3+^ assigned for charge balance
x	intensity
399.193	0
408.835	0.230441
418.477	0.244447
428.12	0.230222
437.762	0.206396
447.404	0.181663
457.047	0.166878
466.689	0.171456
476.331	0.156074
485.974	0.138628
495.616	0.130702
505.258	0.111199
514.901	0.0919086
524.543	0.0917309
534.185	0.105476
543.828	0.120761
553.47	0.154286
563.112	0.162473
572.755	0.130463
582.397	0.122122
592.039	0.116698
601.682	0.118539
611.324	0.127638
620.966	0.13691
630.609	0.143275
640.251	0.150826
649.893	0.157024
659.536	0.161136
669.178	0.166207
678.82	0.169877
688.463	0.17087
698.105	0.170758
707.747	0.167791
717.39	0.163701
727.032	0.161849
736.674	0.160425
746.317	0.156096
755.959	0.150514
765.601	0.149006
775.244	0.154743
784.886	0.164145
794.528	0.180774
804.171	0.204387
813.813	0.231102
823.455	0.268104
833.098	0.300439
842.74	0.320071
852.382	0.330194
862.025	0.326228
871.667	0.306459
881.309	0.272445
890.952	0.263151
900.594	0.244269
910.236	0.214968
919.879	0.194434
929.521	0.169935
939.163	0.146256
948.806	0.125517
958.448	0.103209
968.09	0.0835715
977.733	0.0655519
987.375	0.0477571
997.017	0.0341643
1006.66	0.0249287
1016.3	0.0186406
1025.94	0.0142998
1035.59	0.0120806
1045.23	0.0111495
1054.87	0.0102789
1064.51	0.00968986
1074.16	0.00990557
1083.8	0.00916443
1093.44	0.00793214
1103.08	0.00716478
1112.72	0.00658481
1122.37	0.00617549
1132.01	0.00573671
1141.65	0.00556468
1151.3	0.00519332
1160.94	0.00527452
1170.58	0.00514852
1180.22	0.00500364
1189.86	0.00493752
1199.51	0.00542412
1209.15	0.00543679
1218.79	0.00555413
1228.43	0.00569815
1238.08	0.00583489
1247.72	0.0058736
1257.36	0.00588193
1267	0.00611018
1276.64	0.00622648
1286.29	0.00654679
1295.93	0.00670948
1305.57	0.00729917
1315.21	0.00782798
1324.86	0.00813881
1334.5	0.00889103
1344.14	0.0094268
1353.78	0.0101505
1363.43	0.010476
1373.07	0.0112373
1382.71	0.0119773
1392.35	0.0134057
1401.99	0.0151656
1411.64	0.017777
1421.28	0.0204196
1430.92	0.0223655
1440.57	0.0230085
1450.21	0.0232256
1459.85	0.0234388
1469.49	0.0226705
1479.13	0.0219888
1488.78	0.0210098
1498.42	0.019653
1508.06	0.0185402
1517.7	0.0170405
1527.35	0.0162447
1536.99	0.0163174
1546.63	0.0169801
1556.27	0.0165939
1565.91	0.0169904
1575.56	0.0170426
1585.2	0.0169709
1594.84	0.0174009
1604.48	0.0174233
1614.13	0.017006
1623.77	0.0167661
1633.41	0.0167276
1643.05	0.0164506
1652.7	0.0165837
1662.34	0.0168609
1671.98	0.016779
1681.62	0.0168357
1691.27	0.0169254
1700.91	0.0171684
1710.55	0.0175505
1720.19	0.0180521
1729.84	0.0179255
1739.48	0.0177515
1749.12	0.0179846
1758.76	0.0183949
1768.4	0.0186153
1778.05	0.0187774
1787.69	0.0189379
1797.33	0.0187779
1806.97	0.0188213
1816.62	0.0190192
1826.26	0.0197014
1835.9	0.0193338
1845.54	0.019788
1855.18	0.0200262
1864.83	0.0202105
1874.47	0.0204195
1884.11	0.0204411
1893.75	0.0207272
1903.4	0.02061
1913.04	0.0215246
1922.68	0.020938
1932.32	0.0215238
1941.97	0.0222707
1951.61	0.0210601
1961.25	0.0219522
1970.89	0.0214315
1980.54	0.0253462
1990.18	0.0257711
1999.82	0.0246576
2009.46	0.0256945
2019.11	0.0266511
2028.75	0.0264628
2038.39	0.0282769
2048.03	0.0270796
2057.67	0.028916
2067.32	0.0281959
2076.96	0.0292156
2086.6	0.0271187
2096.24	0.028051
2105.89	0.0281248
2115.53	0.0295187
2125.17	0.0282181
2134.81	0.0276349
2144.45	0.0279417
2154.1	0.0274523
2163.74	0.0345793
2173.38	0.0300652
2183.02	0.0328905
2192.67	0.0313316
2202.31	0.0313164
2211.95	0.0331804
2221.59	0.0321374
2231.24	0.0319045
2240.88	0.0324805
2250.52	0.0324013
2260.16	0.0331445
2269.8	0.0338198
2279.45	0.0345988
2289.09	0.0343945
2298.73	0.0347161
2308.38	0.0351986
2318.02	0.0344686
2327.66	0.0344704
2337.3	0.0344884
2346.94	0.0341176
2356.59	0.0348537
2366.23	0.034465
2375.87	0.03526
2385.51	0.0353664
2395.16	0.0358954
2404.8	0.0357282
2414.44	0.0362137
2424.08	0.036898
2433.72	0.0365657
2443.37	0.0376049
2453.01	0.0371259
2462.65	0.0368995
2472.29	0.0380348
2481.94	0.0375927
2491.58	0.0378249
2501.22	0.0388744
2510.86	0.0388231
2520.51	0.0392795
2530.15	0.0394205
2539.79	0.0389613
2549.43	0.0404604
2559.07	0.0397867
2568.72	0.0400065
2578.36	0.0414298
2588	0.0405102
2597.64	0.0411012
2607.29	0.0419205
2616.93	0.0410924
2626.57	0.0419184
2636.21	0.0424771
2645.86	0.0424793
2655.5	0.0429333
2665.14	0.0424891
2674.78	0.0421512
2684.43	0.0425426
2694.07	0.0428335
2703.71	0.0427809
2713.35	0.0427025
2722.99	0.0435899
2732.64	0.0428608
2742.28	0.0437467
2751.92	0.0446141
2761.56	0.0451317
2771.21	0.0446184
2780.85	0.0444493
2790.49	0.0460299
2800.13	0.0462506
2809.78	0.0462231
2819.42	0.0458303
2829.06	0.0463021
2838.7	0.0461233
2848.34	0.0463577
2857.99	0.0459709
2867.63	0.046462
2877.27	0.0478504
2886.91	0.0463641
2896.56	0.0466594
2906.2	0.0464688
2915.84	0.0469804
2925.48	0.0460863
2935.13	0.0467713
2944.77	0.0485537
2954.41	0.0473278
2964.05	0.0482857
2973.7	0.0486968
2983.34	0.0493428
2992.98	0.0500716
3002.62	0.0493222
3012.26	0.0504841
3021.91	0.0505105
3031.55	0.0511952
3041.19	0.0523336
3050.83	0.0505359
3060.48	0.0515005
3070.12	0.0527174
3079.76	0.0520119
3089.4	0.0528845
3099.05	0.0523772
3108.69	0.0532383
3118.33	0.0537736
3127.97	0.0521763
3137.61	0.0549088
3147.26	0.0545279
3156.9	0.0545596
3166.54	0.0536969
3176.18	0.0531729
3185.83	0.0543171
3195.47	0.0554892
3205.11	0.0560616
3214.75	0.0553535
3224.4	0.0558936
3234.04	0.0553211
3243.68	0.0557918
3253.32	0.0562958
3262.97	0.055581
3272.61	0.0561109
3282.25	0.0553739
3291.89	0.0564044
3301.53	0.0589527
3311.18	0.0570362
3320.82	0.0572017
3330.46	0.0581334
3340.1	0.0590365
3349.75	0.0576227
3359.39	0.059465
3369.03	0.0577226
3378.67	0.0597943
3388.32	0.0581243
3397.96	0.0577116
3407.6	0.0604541
3417.24	0.0600224
3426.89	0.0605487
3436.53	0.05785
3446.17	0.058331
3455.81	0.0618449
3465.45	0.0621768
3475.1	0.0611061
3484.74	0.0632653
3494.38	0.0610208
3504.02	0.0592131
3513.67	0.0594824
3523.31	0.059811
3532.95	0.0602345
3542.59	0.0612205
3552.24	0.0585223
3561.88	0.0596533
3571.52	0.0604997
3581.16	0.0592847
3590.8	0.0615276
3600.45	0.0600352
3610.09	0.0588099
3619.73	0.0583538
3629.37	0.0605247
3639.02	0.0616384
3648.66	0.0617799
3658.3	0.061609
3667.94	0.0604197
3677.59	0.0577384
3687.23	0.0602517
3696.87	0.0612124
3706.51	0.0621299
3716.16	0.0612222
3725.8	0.0628767
3735.44	0.062721
3745.08	0.0629221
3754.72	0.0619487
3764.37	0.0605033
3774.01	0.0629775
3783.65	0.0618965
3793.29	0.06324
3802.94	0.0641613
3812.58	0.0634951
3822.22	0.0627982
3831.86	0.0643133
3841.51	0.0636102
3851.15	0.0640874
3860.79	0.0645883
3870.43	0.0632737
3880.07	0.0639948
3889.72	0.0665235
3899.36	0.0650703
3909	0.0653077
3918.64	0.066738
3928.29	0.0664021
3937.93	0.0673586
3947.57	0.0664161
3957.21	0.065621
3966.86	0.0651096
3976.5	0.0666319
3986.14	0.0688798
3995.78	0.0647481
