Measurement: Infrared, Infrared Data Processed
Mineral: Titanite
Rruff sample: R050472
Ideal chemistry: CaTi^4+^SiO_5_
Locality: Turner's Island, Lake Clear, Wadawaska, Ontario, Canada
Source: California Institute of Technology
Description: Brown flattened wedge-shaped crystal
Measured chemistry: (Ca_0.99_Na_0.01_)(Ti_0.81_Al_0.09_Fe^3+^_0.07_Nb_0.03_)Si_1.00_O_4_(O_0.80_F_0.20_)
x	intensity
374.123	0.202534
383.765	0.180901
393.407	0.183139
403.05	0.185785
412.692	0.195258
422.334	0.198183
431.976	0.184145
441.619	0.174019
451.261	0.16395
460.904	0.153661
470.546	0.145596
480.188	0.133636
489.83	0.125692
499.473	0.117529
509.115	0.102169
518.758	0.0901035
528.4	0.0885837
538.042	0.0954405
547.684	0.108015
557.327	0.121756
566.969	0.119756
576.611	0.106576
586.254	0.0982169
595.896	0.0942412
605.538	0.0956725
615.181	0.0981807
624.823	0.0995797
634.466	0.101671
644.108	0.105534
653.75	0.109413
663.393	0.113302
673.035	0.117013
682.677	0.121233
692.319	0.125122
701.962	0.1282
711.604	0.13135
721.246	0.133302
730.889	0.136194
740.531	0.13996
750.173	0.143924
759.816	0.148802
769.458	0.155513
779.101	0.165894
788.743	0.179405
798.385	0.19073
808.028	0.204326
817.67	0.222027
827.312	0.236252
836.955	0.243784
846.597	0.246091
856.239	0.244233
865.881	0.236724
875.524	0.222182
885.166	0.20957
894.808	0.202102
904.451	0.191682
914.093	0.180151
923.736	0.165883
933.378	0.147494
943.02	0.13158
952.663	0.115204
962.305	0.0983011
971.947	0.0820247
981.59	0.0666932
991.232	0.0519784
1000.87	0.0397983
1010.52	0.0308654
1020.16	0.024936
1029.8	0.0203055
1039.44	0.0170215
1049.09	0.0143102
1058.73	0.0122579
1068.37	0.0105518
1078.01	0.00914291
1087.65	0.00743526
1097.3	0.00587889
1106.94	0.00470945
1116.58	0.00345785
1126.22	0.00253209
1135.87	0.00154766
1145.51	0.000992723
1155.15	0.000581761
1164.79	0.00043126
1174.44	2.53413e-06
1184.08	-0.000373242
1193.72	-0.000475521
1203.36	-0.000488574
1213.01	-0.000492257
1222.65	-0.00044268
1232.29	-0.000327223
1241.93	-0.000472236
1251.58	-0.000433357
1261.22	-0.000468943
1270.86	-0.000518345
1280.5	-0.000435584
1290.14	-0.000230894
1299.79	-0.000164211
1309.43	-0.000122017
1319.07	-0.000198915
1328.71	-0.000169735
1338.36	0.000254711
1348	0.000260386
1357.64	0.0001661
1367.28	0.000572019
1376.92	0.000610228
1386.57	0.00102272
1396.21	0.00142922
1405.85	0.00149297
1415.49	0.00162972
1425.14	0.00203591
1434.78	0.00222401
1444.42	0.00202304
1454.06	0.0021832
1463.71	0.0019343
1473.35	0.00236147
1482.99	0.0018148
1492.63	0.00187185
1502.28	0.00206463
1511.92	0.0020172
1521.56	0.0030032
1531.2	0.00225414
1540.85	0.00369705
1550.49	0.00256572
1560.13	0.00399953
1569.77	0.00286529
1579.41	0.00258668
1589.06	0.00225666
1598.7	0.00266811
1608.34	0.00262298
1617.98	0.00307932
1627.63	0.00294845
1637.27	0.00330471
1646.91	0.0037466
1656.55	0.00319698
1666.19	0.00302029
1675.84	0.00328657
1685.48	0.00399436
1695.12	0.00410585
1704.77	0.00350125
1714.41	0.00346956
1724.05	0.0029604
1733.69	0.00385411
1743.33	0.0027123
1752.98	0.00310355
1762.62	0.00311637
1772.26	0.00280744
1781.9	0.00274407
1791.55	0.00292282
1801.19	0.00244728
1810.83	0.00235367
1820.47	0.00211015
1830.12	0.00234559
1839.76	0.00196939
1849.4	0.00181932
1859.04	0.00163735
1868.68	0.00204047
1878.33	0.00132203
1887.97	0.00122211
1897.61	0.000977397
1907.25	0.00149763
1916.9	0.00127164
1926.54	0.000866268
1936.18	0.000804665
1945.82	-5.15077e-05
1955.46	-0.000720384
1965.11	0.000806006
1974.75	0.00114647
1984.39	0.00314116
1994.04	0.00281214
2003.68	0.00218045
2013.32	0.00155642
2022.96	0.0035618
2032.6	0.00319991
2042.25	0.00317001
2051.89	0.00421934
2061.53	0.00406194
2071.17	0.00495687
2080.82	0.00571418
2090.46	0.00516124
2100.1	0.00535688
2109.74	0.0054621
2119.39	0.00495558
2129.03	0.00375365
2138.67	0.00442191
2148.31	0.00531249
2157.95	0.00580084
2167.6	0.0072735
2177.24	0.00574777
2186.88	0.00619629
2196.52	0.00674537
2206.17	0.00665125
2215.81	0.00605849
2225.45	0.00765728
2235.09	0.00748853
2244.74	0.00678748
2254.38	0.00706455
2264.02	0.00734592
2273.66	0.00753689
2283.3	0.00765742
2292.95	0.00750014
2302.59	0.00736646
2312.23	0.00772351
2321.87	0.00927245
2331.52	0.0083858
2341.16	0.0081743
2350.8	0.00782875
2360.44	0.00847521
2370.09	0.00790204
2379.73	0.00709504
2389.37	0.00716206
2399.01	0.00712608
2408.66	0.00736701
2418.3	0.00720642
2427.94	0.00745887
2437.58	0.00786156
2447.22	0.00811278
2456.87	0.00773106
2466.51	0.00816934
2476.15	0.00754308
2485.79	0.00782879
2495.44	0.00734988
2505.08	0.00763931
2514.72	0.00781147
2524.36	0.00727624
2534.01	0.00743788
2543.65	0.00831339
2553.29	0.00847366
2562.93	0.00819308
2572.57	0.00876581
2582.22	0.0082862
2591.86	0.00868247
2601.5	0.00882115
2611.14	0.00876638
2620.79	0.0092134
2630.43	0.00945889
2640.07	0.00969288
2649.71	0.0093299
2659.36	0.00946767
2669	0.00930414
2678.64	0.00916005
2688.28	0.00923609
2697.93	0.00955647
2707.57	0.00927136
2717.21	0.00935974
2726.85	0.00962324
2736.49	0.00969006
2746.14	0.00984211
2755.78	0.00961056
2765.42	0.00967186
2775.06	0.00949072
2784.71	0.00977822
2794.35	0.00988338
2803.99	0.00988651
2813.63	0.0102806
2823.28	0.00990607
2832.92	0.0102754
2842.56	0.00935862
2852.2	0.00849469
2861.84	0.0089326
2871.49	0.00966942
2881.13	0.00937535
2890.77	0.00981417
2900.41	0.00966118
2910.06	0.00871563
2919.7	0.00760512
2929.34	0.00867108
2938.98	0.00944238
2948.62	0.00913098
2958.27	0.0100109
2967.91	0.00935022
2977.55	0.00988398
2987.2	0.00982253
2996.84	0.00992177
3006.48	0.00984131
3016.12	0.0103396
3025.76	0.00964274
3035.41	0.00998127
3045.05	0.00938424
3054.69	0.0098945
3064.33	0.00964158
3073.98	0.00946284
3083.62	0.010024
3093.26	0.00969166
3102.9	0.00962775
3112.55	0.00994104
3122.19	0.0096662
3131.83	0.00979766
3141.47	0.00962794
3151.11	0.00983345
3160.76	0.00918842
3170.4	0.00921786
3180.04	0.00964807
3189.68	0.00934277
3199.33	0.00983977
3208.97	0.00977804
3218.61	0.00999379
3228.25	0.00955793
3237.9	0.00980469
3247.54	0.00941269
3257.18	0.00932713
3266.82	0.00945831
3276.47	0.00901777
3286.11	0.00840291
3295.75	0.0086409
3305.39	0.00887304
3315.03	0.00845797
3324.68	0.00843813
3334.32	0.0080417
3343.96	0.00859201
3353.6	0.00852919
3363.25	0.00719994
3372.89	0.00741946
3382.53	0.00752055
3392.17	0.00742789
3401.82	0.00695249
3411.46	0.00579185
3421.1	0.00602127
3430.74	0.00619191
3440.39	0.00567124
3450.03	0.00639908
3459.67	0.00547614
3469.31	0.00465273
3478.95	0.00512176
3488.6	0.00526074
3498.24	0.00364268
3507.88	0.00428895
3517.52	0.00334002
3527.17	0.0040004
3536.81	0.00302034
3546.45	0.00316076
3556.09	0.00228167
3565.74	0.00268787
3575.38	0.00208541
3585.02	0.00115618
3594.66	0.00208325
3604.3	0.00105249
3613.95	0.00112848
3623.59	0.000146337
3633.23	-0.000372946
3642.87	-0.00132068
3652.52	-0.000578955
3662.16	8.95485e-05
3671.8	0.000519481
3681.44	-0.00221662
3691.09	-0.000982504
3700.73	-0.00138424
3710.37	-0.000280153
3720.01	-0.00197567
3729.66	-0.00158185
3739.3	-0.00229158
3748.94	0.000773545
3758.58	-0.00200319
3768.22	-0.00127603
3777.87	-0.00091704
3787.51	-0.00241417
3797.15	-0.00123614
3806.79	-0.000861965
3816.44	-0.000192817
3826.08	-0.00153156
3835.72	-0.00103829
3845.36	-0.000659741
3855.01	0.0011781
3864.65	0.000549268
3874.29	0.000705369
3883.93	0.000970662
3893.57	0.00028475
3903.22	0.00118126
3912.86	-0.000193398
3922.5	-0.000289958
3932.14	0.000762139
3941.79	9.06736e-06
3951.43	-0.000840053
3961.07	-0.000816502
3970.71	0.000527441
3980.36	-0.000273015
3990	0.000403214
3999.64	1.96472e-05
