Measurement: Infrared, Infrared Data Processed
Mineral: Topaz
Rruff sample: R050199
Ideal chemistry: Al_2_SiO_4_F_2_
Locality: Madagascar
Source: Marcus Origlieri
Description: Transparent colorless crystal fragment
Measured chemistry: Al_2.000_Si_1.000_O_4.000_(F_1.340_(OH)_0.660_)
x	intensity
374.123	0.142478
383.765	0.156731
393.407	0.164986
403.05	0.135471
412.692	0.163884
422.334	0.176042
431.976	0.182786
441.619	0.195553
451.261	0.195061
460.904	0.164054
470.546	0.135037
480.188	0.165189
489.83	0.12342
499.473	0.12065
509.115	0.122011
518.758	0.119541
528.4	0.110969
538.042	0.0879644
547.684	0.080922
557.327	0.107359
566.969	0.093331
576.611	0.0893668
586.254	0.122976
595.896	0.157105
605.538	0.201552
615.181	0.208089
624.823	0.174843
634.466	0.137682
644.108	0.108637
653.75	0.0834163
663.393	0.0606716
673.035	0.0404605
682.677	0.0302507
692.319	0.0231194
701.962	0.0287436
711.604	0.0279448
721.246	0.0190656
730.889	0.0180388
740.531	0.0190597
750.173	0.0219496
759.816	0.02758
769.458	0.0382578
779.101	0.0415416
788.743	0.0558742
798.385	0.0781054
808.028	0.106275
817.67	0.136823
827.312	0.167932
836.955	0.197973
846.597	0.218509
856.239	0.230623
865.881	0.233436
875.524	0.222262
885.166	0.195366
894.808	0.173071
904.451	0.155259
914.093	0.140302
923.736	0.124271
933.378	0.113648
943.02	0.101789
952.663	0.0838276
962.305	0.0691534
971.947	0.0561839
981.59	0.046118
991.232	0.0462601
1000.87	0.0524568
1010.52	0.0436093
1020.16	0.0323108
1029.8	0.0249838
1039.44	0.0195022
1049.09	0.0148237
1058.73	0.0122431
1068.37	0.0100891
1078.01	0.00903001
1087.65	0.00818381
1097.3	0.00760754
1106.94	0.0071527
1116.58	0.00699699
1126.22	0.00669767
1135.87	0.00709386
1145.51	0.0077515
1155.15	0.0141769
1164.79	0.0258517
1174.44	0.00982041
1184.08	0.0054136
1193.72	0.00366702
1203.36	0.00321256
1213.01	0.00269313
1222.65	0.00234567
1232.29	0.00192421
1241.93	0.00179722
1251.58	0.0014133
1261.22	0.00124406
1270.86	0.00127632
1280.5	0.00122081
1290.14	0.00106012
1299.79	0.000995039
1309.43	0.00114521
1319.07	0.000965233
1328.71	0.00110174
1338.36	0.00124348
1348	0.00105513
1357.64	0.00103018
1367.28	0.00108025
1376.92	0.000904934
1386.57	0.00140099
1396.21	0.00135519
1405.85	0.00113784
1415.49	0.00120071
1425.14	0.00152095
1434.78	0.00171856
1444.42	0.00175996
1454.06	0.00203924
1463.71	0.00207519
1473.35	0.00221725
1482.99	0.00170127
1492.63	0.00156631
1502.28	0.00156196
1511.92	0.00162582
1521.56	0.00204403
1531.2	0.00146232
1540.85	0.00239931
1550.49	0.00144536
1560.13	0.00249129
1569.77	0.00157343
1579.41	0.0015627
1589.06	0.0011754
1598.7	0.00156983
1608.34	0.00142538
1617.98	0.00208338
1627.63	0.00186179
1637.27	0.00177823
1646.91	0.00202666
1656.55	0.00162807
1666.19	0.00129783
1675.84	0.00148459
1685.48	0.00154221
1695.12	0.00176928
1704.77	0.00104561
1714.41	0.00119677
1724.05	0.000970092
1733.69	0.00181996
1743.33	0.000521035
1752.98	0.000217146
1762.62	0.00025573
1772.26	0.00100034
1781.9	0.000639685
1791.55	0.000651167
1801.19	0.00125543
1810.83	0.00136078
1820.47	0.00164959
1830.12	0.00147125
1839.76	0.000710361
1849.4	0.000895097
1859.04	0.00132223
1868.68	0.00169793
1878.33	0.00140776
1887.97	0.00135771
1897.61	0.000736538
1907.25	0.000678107
1916.9	0.00146543
1926.54	0.000623188
1936.18	0.000539062
1945.82	0.000603747
1955.46	0.00077151
1965.11	0.000335653
1974.75	-0.000848945
1984.39	0.000626439
1994.04	0.00245449
2003.68	-0.00162351
2013.32	0.000307051
2022.96	-0.00107261
2032.6	0.000521835
2042.25	-0.00130408
2051.89	0.000300487
2061.53	0.00128564
2071.17	0.000531462
2080.82	0.000591266
2090.46	-3.27619e-05
2100.1	0.000849817
2109.74	0.00141274
2119.39	0.000957156
2129.03	0.000368803
2138.67	0.00152125
2148.31	0.00061942
2157.95	-0.00219824
2167.6	0.000247169
2177.24	-0.00316729
2186.88	-0.000147952
2196.52	-0.000612317
2206.17	-1.46198e-07
2215.81	-0.00170423
2225.45	-0.000389701
2235.09	-0.000961089
2244.74	-0.0018515
2254.38	-0.000909681
2264.02	-0.00157827
2273.66	-0.000634724
2283.3	-0.000582525
2292.95	-0.000637982
2302.59	-0.000824475
2312.23	6.06798e-05
2321.87	0.000506732
2331.52	0.000547173
2341.16	0.000935949
2350.8	2.81971e-05
2360.44	5.60006e-05
2370.09	0.000259262
2379.73	-0.000566697
2389.37	-0.000572238
2399.01	-0.000646522
2408.66	-0.000985649
2418.3	-0.000645953
2427.94	-0.000824987
2437.58	-0.000245342
2447.22	-0.000780575
2456.87	-0.000866458
2466.51	-0.000669204
2476.15	-0.00143639
2485.79	-0.000952453
2495.44	-0.000954082
2505.08	-0.00164911
2514.72	-0.00153789
2524.36	-0.00194897
2534.01	-0.00250735
2543.65	-0.00214271
2553.29	-0.00222682
2562.93	-0.00147002
2572.57	-0.00240773
2582.22	-0.00224018
2591.86	-0.00259407
2601.5	-0.00269195
2611.14	-0.00282664
2620.79	-0.00251931
2630.43	-0.00236099
2640.07	-0.00270184
2649.71	-0.00260414
2659.36	-0.00296927
2669	-0.00292147
2678.64	-0.00333804
2688.28	-0.00349927
2697.93	-0.00362643
2707.57	-0.00339538
2717.21	-0.00320421
2726.85	-0.00366053
2736.49	-0.00354041
2746.14	-0.00265479
2755.78	-0.00286826
2765.42	-0.00318394
2775.06	-0.00362378
2784.71	-0.00336423
2794.35	-0.00343764
2803.99	-0.00303225
2813.63	-0.00366578
2823.28	-0.00342631
2832.92	-0.00309893
2842.56	-0.0025778
2852.2	-0.00241857
2861.84	-0.00210361
2871.49	-0.00267799
2881.13	-0.00318461
2890.77	-0.00339465
2900.41	-0.0029327
2910.06	-0.00325746
2919.7	-0.0025656
2929.34	-0.002471
2938.98	-0.00253959
2948.62	-0.00267789
2958.27	-0.00334213
2967.91	-0.00346238
2977.55	-0.00441845
2987.2	-0.00491976
2996.84	-0.0053988
3006.48	-0.00493078
3016.12	-0.00503987
3025.76	-0.00515825
3035.41	-0.00543443
3045.05	-0.00554403
3054.69	-0.00563295
3064.33	-0.00502232
3073.98	-0.0057252
3083.62	-0.00551922
3093.26	-0.00625262
3102.9	-0.00614756
3112.55	-0.00603608
3122.19	-0.00604499
3131.83	-0.00606624
3141.47	-0.00520008
3151.11	-0.00604289
3160.76	-0.00536157
3170.4	-0.00711875
3180.04	-0.00586231
3189.68	-0.00716341
3199.33	-0.00618252
3208.97	-0.00774027
3218.61	-0.0062509
3228.25	-0.00720608
3237.9	-0.0068495
3247.54	-0.00627815
3257.18	-0.00691393
3266.82	-0.0071204
3276.47	-0.00692548
3286.11	-0.00684281
3295.75	-0.0080432
3305.39	-0.00824783
3315.03	-0.00675218
3324.68	-0.00801696
3334.32	-0.00763782
3343.96	-0.00707013
3353.6	-0.00841299
3363.25	-0.00704847
3372.89	-0.00834103
3382.53	-0.00863097
3392.17	-0.00902482
3401.82	-0.00922074
3411.46	-0.00768599
3421.1	-0.00999279
3430.74	-0.00900111
3440.39	-0.00979229
3450.03	-0.00927201
3459.67	-0.00948646
3469.31	-0.0100017
3478.95	-0.00987584
3488.6	-0.00971188
3498.24	-0.0106242
3507.88	-0.0110127
3517.52	-0.0114282
3527.17	-0.0114838
3536.81	-0.0117074
3546.45	-0.0113857
3556.09	-0.0123606
3565.74	-0.0121272
3575.38	-0.0112147
3585.02	-0.0124049
3594.66	-0.013269
3604.3	-0.0121526
3613.95	-0.012694
3623.59	-0.0134103
3633.23	-0.0125847
3642.87	-0.00860358
3652.52	-0.00707009
3662.16	-0.0152121
3671.8	-0.0137347
3681.44	-0.0160689
3691.09	-0.0161006
3700.73	-0.0159646
3710.37	-0.0152845
3720.01	-0.0171152
3729.66	-0.0171265
3739.3	-0.0170723
3748.94	-0.0146877
3758.58	-0.0167932
3768.22	-0.0156526
3777.87	-0.0168512
3787.51	-0.01811
3797.15	-0.0178237
3806.79	-0.0176314
3816.44	-0.0156215
3826.08	-0.0185376
3835.72	-0.0186185
3845.36	-0.0184606
3855.01	-0.0163628
3864.65	-0.0192766
3874.29	-0.0190871
3883.93	-0.0195877
3893.57	-0.020522
3903.22	-0.0185893
3912.86	-0.0195985
3922.5	-0.019466
3932.14	-0.0175296
3941.79	-0.0211839
3951.43	-0.0195272
3961.07	-0.020057
3970.71	-0.0195372
3980.36	-0.0194699
3990	-0.0212543
3999.64	-0.0206456
