Measurement: Infrared, Infrared Data Processed
Mineral: Topaz
Rruff sample: R050199
Ideal chemistry: Al_2_SiO_4_F_2_
Locality: Madagascar
Source: Marcus Origlieri
Description: Transparent colorless crystal fragment
Measured chemistry: Al_2.000_Si_1.000_O_4.000_(F_1.340_(OH)_0.660_)
x	intensity
50.1401	0.0105134
52.0686	0.00728648
53.9971	0.00764257
55.9255	0.0110807
57.854	0.0111387
59.7825	0.0170145
61.7109	0.0181074
63.6394	0.0145541
65.5679	0.0130969
67.4963	0.0122591
69.4248	0.0130622
71.3533	0.0146624
73.2817	0.0189245
75.2102	0.0190524
77.1387	0.0162007
79.0671	0.0157523
80.9956	0.0174233
82.9241	0.0178779
84.8525	0.0171922
86.781	0.0173034
88.7095	0.0183125
90.6379	0.0193656
92.5664	0.0200113
94.4948	0.0205262
96.4233	0.0209601
98.3518	0.0216004
100.28	0.0212398
102.209	0.0208189
104.137	0.0211704
106.066	0.0222184
107.994	0.0231848
109.923	0.0236548
111.851	0.0235975
113.779	0.0235876
115.708	0.0245971
117.636	0.0252756
119.565	0.0260562
121.493	0.0264389
123.422	0.0268454
125.35	0.0272474
127.279	0.0275536
129.207	0.0280503
131.136	0.0289296
133.064	0.0293685
134.993	0.0305149
136.921	0.0317342
138.85	0.0322952
140.778	0.032558
142.707	0.0323572
144.635	0.0324886
146.563	0.0331108
148.492	0.033698
150.42	0.03418
152.349	0.0346457
154.277	0.0345135
156.206	0.0345784
158.134	0.0354628
160.063	0.0360367
161.991	0.0364763
163.92	0.036573
165.848	0.0365119
167.777	0.0374738
169.705	0.0387374
171.633	0.0397245
173.562	0.0407484
175.49	0.0427466
177.419	0.0456079
179.347	0.0460582
181.276	0.0427262
183.204	0.0396943
185.133	0.0364149
187.061	0.0357996
188.99	0.0373006
190.918	0.0381827
192.847	0.0392666
194.775	0.0404693
196.704	0.0408144
198.632	0.0410632
200.56	0.0418753
202.489	0.0425288
204.417	0.0429421
206.346	0.0433734
208.274	0.0442469
210.203	0.0457242
212.131	0.0472587
214.06	0.047322
215.988	0.0456635
217.917	0.0452193
219.845	0.0459978
221.774	0.0468645
223.702	0.0475478
225.631	0.0478767
227.559	0.0482433
229.488	0.0488348
231.416	0.0494729
233.344	0.0497982
235.273	0.0499013
237.201	0.0503718
239.13	0.0510193
241.058	0.0516365
242.987	0.0522305
244.915	0.0529335
246.844	0.053694
248.772	0.0549144
250.701	0.0558833
252.629	0.0565558
254.558	0.0575773
256.486	0.0585201
258.414	0.0593858
260.343	0.0603385
262.271	0.0615307
264.2	0.062692
266.128	0.0644267
268.057	0.0660427
269.985	0.0645708
271.914	0.0570863
273.842	0.0502062
275.771	0.0503888
277.699	0.0538132
279.628	0.056702
281.556	0.0588349
283.485	0.0608484
285.413	0.0627574
287.341	0.0646266
289.27	0.0665666
291.198	0.06838
293.127	0.0692752
295.055	0.0666944
296.984	0.0603822
298.912	0.055973
300.841	0.056575
302.769	0.0600253
304.698	0.0635186
306.626	0.0665403
308.555	0.0694769
310.483	0.0702864
312.411	0.0660968
314.34	0.0584472
316.269	0.0537692
318.197	0.0548339
320.125	0.0579168
322.054	0.0606914
323.982	0.0636001
325.911	0.0662556
327.839	0.0685001
329.768	0.071104
331.696	0.0737066
333.625	0.075465
335.553	0.0744215
337.482	0.0693115
339.41	0.063462
341.339	0.0604987
343.267	0.0597453
345.195	0.0607713
347.124	0.0630296
349.052	0.0653867
350.981	0.0672719
352.909	0.0689568
354.838	0.0707064
356.766	0.0723414
358.695	0.0740375
360.623	0.0758085
362.552	0.07743
364.48	0.0788674
366.409	0.0801285
368.337	0.0800686
370.265	0.0787747
372.194	0.0779259
374.122	0.0789481
376.051	0.0803071
377.979	0.0793864
379.908	0.0768945
381.836	0.0767542
383.765	0.0793639
385.693	0.0819375
387.622	0.0836855
389.55	0.0845718
391.479	0.0844585
393.407	0.0833214
395.336	0.081228
397.264	0.0782402
399.192	0.0751312
401.121	0.073112
403.049	0.0728357
404.978	0.0740593
406.906	0.0763488
408.835	0.0789878
410.763	0.0816522
412.692	0.0839752
414.62	0.0859584
416.549	0.0881855
418.477	0.0904198
420.406	0.0912398
422.334	0.0894555
424.262	0.0883092
426.191	0.0902938
428.12	0.0931409
430.048	0.0954236
431.976	0.0973999
433.905	0.0988761
435.833	0.0997926
437.762	0.100462
439.69	0.101109
441.619	0.101857
443.547	0.102542
445.476	0.103092
447.404	0.103727
449.333	0.104211
451.261	0.104128
453.19	0.10299
455.118	0.101786
457.046	0.100368
458.975	0.0981344
460.903	0.0948236
462.832	0.0913881
464.76	0.0885537
466.689	0.0854885
468.617	0.0822478
470.546	0.0804666
472.474	0.0819479
474.403	0.0858127
476.331	0.0904275
478.26	0.0937143
480.188	0.0945937
482.116	0.093933
484.045	0.0911168
485.974	0.0866595
487.902	0.0824878
489.83	0.0798799
491.759	0.0789046
493.687	0.0782644
495.616	0.0777805
497.544	0.0775742
499.473	0.0776199
501.401	0.0779254
503.33	0.0786649
505.258	0.0794281
507.187	0.0798355
509.115	0.0793039
511.043	0.0785667
512.972	0.0780139
514.9	0.077652
516.829	0.0776339
518.757	0.0783019
520.686	0.079151
522.614	0.0801904
524.543	0.0806403
526.471	0.079389
528.4	0.0766458
530.328	0.0737626
532.257	0.0710149
534.185	0.0687702
536.114	0.0667973
538.042	0.0651804
539.971	0.0637728
541.899	0.0624609
543.827	0.0614422
545.756	0.060645
547.684	0.0602673
549.613	0.0604696
551.541	0.0615291
553.47	0.0637831
555.398	0.0672765
557.327	0.0701875
559.255	0.0710421
561.184	0.0705661
563.112	0.0696775
565.041	0.0686318
566.969	0.0666936
568.898	0.0638056
570.826	0.0608335
572.755	0.0595547
574.683	0.0609733
576.611	0.064376
578.54	0.069267
580.468	0.0743299
582.397	0.0777594
584.325	0.0788016
586.254	0.0783364
588.182	0.0776987
590.111	0.0781048
592.039	0.0804882
593.968	0.0848663
595.896	0.0900881
597.824	0.0949501
599.753	0.0992499
601.682	0.10329
603.61	0.10654
605.538	0.108751
607.467	0.110621
609.395	0.11325
611.324	0.115549
613.252	0.116247
615.181	0.116489
617.109	0.116454
619.038	0.115235
620.966	0.113783
622.894	0.111971
624.823	0.10949
626.751	0.107371
628.68	0.105967
630.608	0.104822
632.537	0.102964
634.465	0.100618
636.394	0.0982441
638.322	0.0954703
640.251	0.0931083
642.179	0.0907694
644.108	0.0887589
646.036	0.0868992
647.965	0.0844881
649.893	0.0817824
651.822	0.0792084
653.75	0.0769292
655.678	0.074559
657.607	0.0722678
659.535	0.070035
661.464	0.0676791
663.392	0.0652249
665.321	0.0628441
667.249	0.0604303
669.178	0.0583488
671.106	0.0564602
673.035	0.0545108
674.963	0.0521994
676.892	0.0508873
678.82	0.0504554
680.749	0.0492927
682.677	0.0481899
684.606	0.046519
686.534	0.0452162
688.462	0.0445673
690.391	0.0448323
692.319	0.0451905
694.248	0.045216
696.176	0.0450338
698.105	0.0448647
700.033	0.045692
