Measurement: Infrared, Infrared Data Processed
Mineral: Tremolite
Rruff sample: R040109
Ideal chemistry: [box]Ca_2_Mg_5_Si_8_O_22_(OH)_2_
Locality: Cassiar, British Columbia, Canada
Source: University of Arizona Mineral Museum
Description: Green fine-grained massive
Measured chemistry: [box]Ca_1.99_(Mg_0.90_Fe_0.08_Al_0.01_)_5_Si_8.01_O_22_(OH)_2_
x	intensity
399.193	0
408.835	0.289938
418.477	0.300808
428.12	0.308312
437.762	0.401758
447.404	0.367005
457.047	0.327958
466.689	0.276291
476.331	0.227624
485.974	0.191416
495.616	0.208277
505.258	0.22376
514.901	0.17303
524.543	0.154384
534.185	0.133742
543.828	0.0992914
553.47	0.067415
563.112	0.0453162
572.755	0.0321763
582.397	0.0260651
592.039	0.0233949
601.682	0.0229218
611.324	0.0236632
620.966	0.0268356
630.609	0.0358211
640.251	0.0665321
649.893	0.0553034
659.536	0.0772207
669.178	0.061347
678.82	0.100823
688.463	0.11894
698.105	0.0553873
707.747	0.0365871
717.39	0.0393405
727.032	0.0467057
736.674	0.0568278
746.317	0.0821417
755.959	0.197111
765.601	0.0802108
775.244	0.0368901
784.886	0.0304496
794.528	0.0299033
804.171	0.0312866
813.813	0.0343605
823.455	0.0380368
833.098	0.0436995
842.74	0.0547672
852.382	0.0674914
862.025	0.0837864
871.667	0.107061
881.309	0.144068
890.952	0.203689
900.594	0.29894
910.236	0.443941
919.879	0.502369
929.521	0.375049
939.163	0.504042
948.806	0.569771
958.448	0.454729
968.09	0.378667
977.733	0.359448
987.375	0.367061
997.017	0.31509
1006.66	0.231538
1016.3	0.180791
1025.94	0.143222
1035.59	0.160642
1045.23	0.167175
1054.87	0.180062
1064.51	0.174287
1074.16	0.151034
1083.8	0.125861
1093.44	0.130551
1103.08	0.154563
1112.72	0.145018
1122.37	0.107212
1132.01	0.0746477
1141.65	0.0406596
1151.3	0.0236427
1160.94	0.0155824
1170.58	0.0123295
1180.22	0.0100916
1189.86	0.00896736
1199.51	0.00775188
1209.15	0.00676842
1218.79	0.00625149
1228.43	0.00557637
1238.08	0.00510672
1247.72	0.00465702
1257.36	0.00429341
1267	0.00404806
1276.64	0.00402259
1286.29	0.00394104
1295.93	0.00396331
1305.57	0.0037329
1315.21	0.00357562
1324.86	0.00371549
1334.5	0.00422254
1344.14	0.00469475
1353.78	0.00493738
1363.43	0.00504372
1373.07	0.00520361
1382.71	0.00531249
1392.35	0.00576167
1401.99	0.00653568
1411.64	0.00702009
1421.28	0.00762068
1430.92	0.00785548
1440.57	0.00754922
1450.21	0.00742055
1459.85	0.00671785
1469.49	0.00664858
1479.13	0.00653997
1488.78	0.00605969
1498.42	0.00604043
1508.06	0.00564947
1517.7	0.00574386
1527.35	0.0061846
1536.99	0.00647668
1546.63	0.00764536
1556.27	0.00847474
1565.91	0.00933819
1575.56	0.00961635
1585.2	0.0105694
1594.84	0.0105987
1604.48	0.0108175
1614.13	0.0101845
1623.77	0.00963339
1633.41	0.00887277
1643.05	0.00791858
1652.7	0.00630403
1662.34	0.00596222
1671.98	0.00559559
1681.62	0.00517173
1691.27	0.00505449
1700.91	0.00355
1710.55	0.00314619
1720.19	0.00298344
1729.84	0.00243079
1739.48	0.00198793
1749.12	0.0019973
1758.76	0.00253878
1768.4	0.0020886
1778.05	0.00211493
1787.69	0.0017904
1797.33	0.00130128
1806.97	0.00144511
1816.62	0.000677094
1826.26	0.000761181
1835.9	0.000421649
1845.54	0.000217649
1855.18	0.000424994
1864.83	-3.69026e-05
1874.47	-7.36584e-06
1884.11	-0.000758182
1893.75	-0.00184457
1903.4	-0.00186415
1913.04	-0.00256821
1922.68	-0.00254036
1932.32	-0.00301492
1941.97	-0.00286116
1951.61	-0.00519409
1961.25	-0.00610436
1970.89	-0.00847909
1980.54	-0.00729252
1990.18	-0.00522192
1999.82	-0.00700615
2009.46	-0.00762046
2019.11	-0.00316395
2028.75	-0.00552058
2038.39	-0.00334375
2048.03	-0.00122323
2057.67	-0.00121181
2067.32	-0.00104544
2076.96	-0.00106889
2086.6	-0.00189717
2096.24	-0.00128488
2105.89	-0.00163535
2115.53	-0.00183285
2125.17	-0.00274765
2134.81	-0.00480394
2144.45	-0.00827954
2154.1	-0.00876975
2163.74	-0.00370663
2173.38	-0.0036819
2183.02	-0.00351786
2192.67	-0.00441772
2202.31	-0.00179987
2211.95	-0.00199598
2221.59	-0.00355416
2231.24	-0.000866401
2240.88	-0.00129216
2250.52	-0.00127124
2260.16	0.000552802
2269.8	0.00175306
2279.45	0.0029914
2289.09	0.0036657
2298.73	0.00427849
2308.38	0.00420262
2318.02	0.00496709
2327.66	0.00410459
2337.3	0.00406521
2346.94	0.0042482
2356.59	0.00394217
2366.23	0.00285977
2375.87	0.0021294
2385.51	0.00309011
2395.16	0.00436389
2404.8	0.0036478
2414.44	0.00386052
2424.08	0.00390272
2433.72	0.00396594
2443.37	0.00295256
2453.01	0.0038562
2462.65	0.00367362
2472.29	0.00303556
2481.94	0.00374979
2491.58	0.00300604
2501.22	0.00298653
2510.86	0.00266325
2520.51	0.00354276
2530.15	0.00320811
2539.79	0.00353411
2549.43	0.00405673
2559.07	0.00503854
2568.72	0.00450817
2578.36	0.00403045
2588	0.00492294
2597.64	0.00513859
2607.29	0.0048761
2616.93	0.00464199
2626.57	0.00521187
2636.21	0.00601138
2645.86	0.00591001
2655.5	0.00457452
2665.14	0.00493005
2674.78	0.00499686
2684.43	0.00503437
2694.07	0.00427956
2703.71	0.00478935
2713.35	0.00466951
2722.99	0.00485353
2732.64	0.00512715
2742.28	0.00512865
2751.92	0.00494049
2761.56	0.00536336
2771.21	0.00526073
2780.85	0.00512748
2790.49	0.00537214
2800.13	0.00524553
2809.78	0.00536058
2819.42	0.00593291
2829.06	0.00498688
2838.7	0.00490804
2848.34	0.00614444
2857.99	0.00521184
2867.63	0.00573554
2877.27	0.0065902
2886.91	0.00599577
2896.56	0.00575007
2906.2	0.00599745
2915.84	0.00603716
2925.48	0.0053735
2935.13	0.00675469
2944.77	0.00663517
2954.41	0.0081791
2964.05	0.0076542
2973.7	0.00702817
2983.34	0.00881526
2992.98	0.0083106
3002.62	0.00833038
3012.26	0.00808054
3021.91	0.00891549
3031.55	0.00983695
3041.19	0.00844638
3050.83	0.00850308
3060.48	0.00891112
3070.12	0.00805478
3079.76	0.00963502
3089.4	0.0089484
3099.05	0.0103949
3108.69	0.00980048
3118.33	0.0107231
3127.97	0.0105497
3137.61	0.0111138
3147.26	0.0114651
3156.9	0.0115043
3166.54	0.0110265
3176.18	0.0107597
3185.83	0.0121769
3195.47	0.0120071
3205.11	0.0113434
3214.75	0.0113154
3224.4	0.011047
3234.04	0.0113452
3243.68	0.0123192
3253.32	0.0117483
3262.97	0.0122551
3272.61	0.0142254
3282.25	0.0137203
3291.89	0.0138929
3301.53	0.0126915
3311.18	0.0123967
3320.82	0.0142262
3330.46	0.0133437
3340.1	0.0149374
3349.75	0.0146014
3359.39	0.0154955
3369.03	0.0150256
3378.67	0.0152142
3388.32	0.0152378
3397.96	0.0138393
3407.6	0.015586
3417.24	0.0157884
3426.89	0.0141386
3436.53	0.0157826
3446.17	0.014973
3455.81	0.0151274
3465.45	0.0147958
3475.1	0.0156186
3484.74	0.0148723
3494.38	0.0150705
3504.02	0.0155742
3513.67	0.0165647
3523.31	0.0152876
3532.95	0.0149336
3542.59	0.0154538
3552.24	0.015666
3561.88	0.0156157
3571.52	0.0151592
3581.16	0.0136641
3590.8	0.0115329
3600.45	0.0130904
3610.09	0.0128324
3619.73	0.0130528
3629.37	0.0123659
3639.02	0.0101345
3648.66	0.0106433
3658.3	0.01985
3667.94	0.0113947
3677.59	0.0169179
3687.23	0.00607257
3696.87	0.00722365
3706.51	0.00719535
3716.16	0.00573189
3725.8	0.00850362
3735.44	0.00710045
3745.08	0.00858938
3754.72	0.00717964
3764.37	0.00629108
3774.01	0.00803253
3783.65	0.00869379
3793.29	0.00598819
3802.94	0.0106685
3812.58	0.00549748
3822.22	0.00866121
3831.86	0.00717106
3841.51	0.00782314
3851.15	0.00961152
3860.79	0.00996091
3870.43	0.00880998
3880.07	0.00841632
3889.72	0.00724073
3899.36	0.00920558
3909	0.00796706
3918.64	0.00466201
3928.29	0.00899691
3937.93	0.0042449
3947.57	0.0100188
3957.21	0.0108939
3966.86	0.00903225
3976.5	0.0103292
3986.14	0.0100845
3995.78	0.00864537
