Measurement: Infrared, Infrared Data Processed
Mineral: Uvarovite
Rruff sample: R061041
Ideal chemistry: Ca_3_Cr^3+^_2_(SiO_4_)_3_
Locality: Outokumpu, Finland
Source: Royal Ontario Museum
Description: Emerald-green euhedral crystal
Measured chemistry: (Ca_2.93_Mg_0.05_Mn_0.01_[box]_0.01_)_Σ=3.00_(Cr_1.23_Al_0.72_Fe^3+^_0.03_Ti_0.02_)_Σ=2_(Si_1.00_O_4_)_3_
x	intensity
399.193	0
408.835	0.28547
418.477	0.298402
428.12	0.277036
437.762	0.230149
447.404	0.218525
457.047	0.238618
466.689	0.17054
476.331	0.131327
485.974	0.0968052
495.616	0.0704653
505.258	0.0538065
514.901	0.0496229
524.543	0.0978038
534.185	0.205275
543.828	0.166438
553.47	0.0875117
563.112	0.0489817
572.755	0.0343596
582.397	0.0306612
592.039	0.02988
601.682	0.0423359
611.324	0.0850514
620.966	0.044997
630.609	0.0331563
640.251	0.0375252
649.893	0.0429754
659.536	0.0484945
669.178	0.0551165
678.82	0.062447
688.463	0.0717736
698.105	0.0836388
707.747	0.0972966
717.39	0.11399
727.032	0.131423
736.674	0.152619
746.317	0.175429
755.959	0.191162
765.601	0.212296
775.244	0.237874
784.886	0.264637
794.528	0.290831
804.171	0.315008
813.813	0.324935
823.455	0.317225
833.098	0.291659
842.74	0.270825
852.382	0.21958
862.025	0.175601
871.667	0.160777
881.309	0.194916
890.952	0.265726
900.594	0.249982
910.236	0.207636
919.879	0.170843
929.521	0.144316
939.163	0.11881
948.806	0.0976789
958.448	0.0770339
968.09	0.0575899
977.733	0.0392705
987.375	0.0265628
997.017	0.0210886
1006.66	0.0187531
1016.3	0.0160536
1025.94	0.0137032
1035.59	0.0118
1045.23	0.0107278
1054.87	0.00971644
1064.51	0.00885592
1074.16	0.0076681
1083.8	0.00666199
1093.44	0.00594264
1103.08	0.00554791
1112.72	0.00503747
1122.37	0.00494213
1132.01	0.0042026
1141.65	0.00400507
1151.3	0.00414345
1160.94	0.00364762
1170.58	0.0036051
1180.22	0.0036693
1189.86	0.00403279
1199.51	0.00417449
1209.15	0.00380106
1218.79	0.00378051
1228.43	0.00368224
1238.08	0.00420071
1247.72	0.00452725
1257.36	0.00457659
1267	0.00477013
1276.64	0.00484048
1286.29	0.00499592
1295.93	0.00516226
1305.57	0.00521962
1315.21	0.00568487
1324.86	0.00575591
1334.5	0.00607772
1344.14	0.00615198
1353.78	0.00656499
1363.43	0.0068461
1373.07	0.00766137
1382.71	0.00815437
1392.35	0.00882644
1401.99	0.00998589
1411.64	0.0105507
1421.28	0.011647
1430.92	0.0123364
1440.57	0.0127998
1450.21	0.0130246
1459.85	0.0126841
1469.49	0.012553
1479.13	0.0119296
1488.78	0.0118685
1498.42	0.0112426
1508.06	0.0105171
1517.7	0.0101426
1527.35	0.0102698
1536.99	0.0103592
1546.63	0.0105737
1556.27	0.0106411
1565.91	0.0112851
1575.56	0.0113799
1585.2	0.0114116
1594.84	0.0115111
1604.48	0.0119518
1614.13	0.0122003
1623.77	0.0122304
1633.41	0.0125507
1643.05	0.0131175
1652.7	0.0131078
1662.34	0.0141622
1671.98	0.0142135
1681.62	0.0142979
1691.27	0.0146551
1700.91	0.0142711
1710.55	0.0144762
1720.19	0.0151392
1729.84	0.0152193
1739.48	0.0142057
1749.12	0.0132571
1758.76	0.0131407
1768.4	0.0128016
1778.05	0.0130996
1787.69	0.0130198
1797.33	0.0128129
1806.97	0.0130158
1816.62	0.0126404
1826.26	0.0130934
1835.9	0.012782
1845.54	0.013176
1855.18	0.0135787
1864.83	0.01347
1874.47	0.013437
1884.11	0.0129803
1893.75	0.0134757
1903.4	0.013561
1913.04	0.0148402
1922.68	0.0131642
1932.32	0.0150995
1941.97	0.0157725
1951.61	0.0162126
1961.25	0.014868
1970.89	0.0158596
1980.54	0.0196005
1990.18	0.0158874
1999.82	0.0165505
2009.46	0.019788
2019.11	0.0202797
2028.75	0.0170084
2038.39	0.0202427
2048.03	0.0196969
2057.67	0.0192003
2067.32	0.0205694
2076.96	0.0202763
2086.6	0.0192845
2096.24	0.0194066
2105.89	0.0207774
2115.53	0.0196914
2125.17	0.0189635
2134.81	0.0188418
2144.45	0.019744
2154.1	0.0170129
2163.74	0.0228956
2173.38	0.0222445
2183.02	0.0225512
2192.67	0.0210356
2202.31	0.0232881
2211.95	0.022591
2221.59	0.0248176
2231.24	0.0245154
2240.88	0.0252098
2250.52	0.0243618
2260.16	0.0234403
2269.8	0.0251793
2279.45	0.0258377
2289.09	0.024921
2298.73	0.0248239
2308.38	0.0246127
2318.02	0.0253379
2327.66	0.0244916
2337.3	0.0237964
2346.94	0.0240388
2356.59	0.0242103
2366.23	0.0239176
2375.87	0.0241265
2385.51	0.0236789
2395.16	0.0239509
2404.8	0.0250126
2414.44	0.0252152
2424.08	0.0241522
2433.72	0.0252156
2443.37	0.0254914
2453.01	0.0251703
2462.65	0.0255733
2472.29	0.0255684
2481.94	0.0253489
2491.58	0.0255101
2501.22	0.02557
2510.86	0.02651
2520.51	0.0258355
2530.15	0.0256074
2539.79	0.0266602
2549.43	0.028157
2559.07	0.027894
2568.72	0.028548
2578.36	0.0271571
2588	0.0277
2597.64	0.0290343
2607.29	0.0283689
2616.93	0.0291347
2626.57	0.0285133
2636.21	0.0291383
2645.86	0.0290286
2655.5	0.0286546
2665.14	0.0289556
2674.78	0.0280288
2684.43	0.028153
2694.07	0.0284585
2703.71	0.0285159
2713.35	0.0280602
2722.99	0.0296888
2732.64	0.0288039
2742.28	0.0292789
2751.92	0.0293559
2761.56	0.0299978
2771.21	0.0299937
2780.85	0.029482
2790.49	0.0294333
2800.13	0.0301528
2809.78	0.0291482
2819.42	0.0308515
2829.06	0.0305446
2838.7	0.0310019
2848.34	0.0311365
2857.99	0.0303071
2867.63	0.0302617
2877.27	0.0317812
2886.91	0.0303374
2896.56	0.0312776
2906.2	0.0308183
2915.84	0.032072
2925.48	0.030415
2935.13	0.0292047
2944.77	0.0321971
2954.41	0.0295472
2964.05	0.0317618
2973.7	0.0312812
2983.34	0.0326101
2992.98	0.031643
3002.62	0.032912
3012.26	0.0320309
3021.91	0.0327923
3031.55	0.0327716
3041.19	0.0311047
3050.83	0.0326371
3060.48	0.0333967
3070.12	0.0332619
3079.76	0.0339609
3089.4	0.0334645
3099.05	0.033657
3108.69	0.0348764
3118.33	0.0338439
3127.97	0.0331124
3137.61	0.034927
3147.26	0.0351758
3156.9	0.0346431
3166.54	0.0354567
3176.18	0.034784
3185.83	0.0370622
3195.47	0.0360772
3205.11	0.0359868
3214.75	0.035636
3224.4	0.036703
3234.04	0.036266
3243.68	0.0359382
3253.32	0.0361859
3262.97	0.0349063
3272.61	0.0363854
3282.25	0.0373427
3291.89	0.035231
3301.53	0.0375705
3311.18	0.0377316
3320.82	0.0365873
3330.46	0.0372368
3340.1	0.0387233
3349.75	0.036933
3359.39	0.0386905
3369.03	0.0381269
3378.67	0.0372795
3388.32	0.0390541
3397.96	0.0380362
3407.6	0.0386337
3417.24	0.0395944
3426.89	0.0387798
3436.53	0.0398627
3446.17	0.0405457
3455.81	0.0382884
3465.45	0.0409251
3475.1	0.0399759
3484.74	0.0410091
3494.38	0.0389264
3504.02	0.0391556
3513.67	0.0379575
3523.31	0.0398711
3532.95	0.0382977
3542.59	0.0385007
3552.24	0.0382572
3561.88	0.0400883
3571.52	0.038303
3581.16	0.039358
3590.8	0.0387431
3600.45	0.0364899
3610.09	0.0378755
3619.73	0.0393652
3629.37	0.0379571
3639.02	0.0391472
3648.66	0.0385664
3658.3	0.0409729
3667.94	0.0374533
3677.59	0.0418317
3687.23	0.0356221
3696.87	0.035654
3706.51	0.0394861
3716.16	0.0380433
3725.8	0.0392076
3735.44	0.0366283
3745.08	0.0356279
3754.72	0.0389362
3764.37	0.0407623
3774.01	0.0415086
3783.65	0.0404558
3793.29	0.038937
3802.94	0.0405631
3812.58	0.0422512
3822.22	0.0413851
3831.86	0.0388916
3841.51	0.0399855
3851.15	0.0438541
3860.79	0.0409086
3870.43	0.0387109
3880.07	0.0406646
3889.72	0.0404613
3899.36	0.0418194
3909	0.0399279
3918.64	0.0421851
3928.29	0.039787
3937.93	0.0414615
3947.57	0.0414253
3957.21	0.0396634
3966.86	0.0440679
3976.5	0.0399718
3986.14	0.0429526
3995.78	0.0400252
