Measurement: Infrared, Infrared Data Processed
Mineral: Vanadinite
Rruff sample: R050376
Ideal chemistry: Pb^2+^_5_(V^5+^O_4_)_3_Cl
Locality: Morocco
Source: Eugene Schlepp
Description: Red hoppered crystal
Measured chemistry: Pb_5.00_(V_1.00_O_4_)_3_Cl_1.00_
x	intensity
399.193	0.167053
408.835	0.174571
418.477	0.186561
428.12	0.204258
437.762	0.225573
447.404	0.241006
457.047	0.255583
466.689	0.267946
476.331	0.28484
485.974	0.299367
495.616	0.314096
505.258	0.332532
514.901	0.349853
524.543	0.363789
534.185	0.388584
543.828	0.415164
553.47	0.420712
563.112	0.446904
572.755	0.446649
582.397	0.459139
592.039	0.477314
601.682	0.496072
611.324	0.518162
620.966	0.53808
630.609	0.561006
640.251	0.583508
649.893	0.601425
659.536	0.619533
669.178	0.633239
678.82	0.638286
688.463	0.641629
698.105	0.638917
707.747	0.619995
717.39	0.574487
727.032	0.510482
736.674	0.450304
746.317	0.396042
755.959	0.358574
765.601	0.355407
775.244	0.388043
784.886	0.417987
794.528	0.411008
804.171	0.345862
813.813	0.274444
823.455	0.244185
833.098	0.213317
842.74	0.165922
852.382	0.122172
862.025	0.0845456
871.667	0.0598119
881.309	0.0447949
890.952	0.0341771
900.594	0.027459
910.236	0.0235599
919.879	0.0221941
929.521	0.0207632
939.163	0.0228272
948.806	0.0320802
958.448	0.0388201
968.09	0.0335375
977.733	0.03559
987.375	0.0347878
997.017	0.0409558
1006.66	0.0391418
1016.3	0.0328991
1025.94	0.0301276
1035.59	0.0305414
1045.23	0.0325023
1054.87	0.0337806
1064.51	0.0354832
1074.16	0.0379725
1083.8	0.0411344
1093.44	0.0436406
1103.08	0.0469841
1112.72	0.049648
1122.37	0.0511573
1132.01	0.0538196
1141.65	0.0564547
1151.3	0.0591357
1160.94	0.0613001
1170.58	0.0644952
1180.22	0.0674615
1189.86	0.0710491
1199.51	0.0737974
1209.15	0.0774271
1218.79	0.0805347
1228.43	0.0840458
1238.08	0.0879257
1247.72	0.0924457
1257.36	0.0972402
1267	0.103352
1276.64	0.111702
1286.29	0.112328
1295.93	0.113643
1305.57	0.117344
1315.21	0.120786
1324.86	0.122805
1334.5	0.126879
1344.14	0.13088
1353.78	0.135652
1363.43	0.141254
1373.07	0.147078
1382.71	0.152264
1392.35	0.156379
1401.99	0.160109
1411.64	0.162204
1421.28	0.164568
1430.92	0.168814
1440.57	0.173571
1450.21	0.177618
1459.85	0.181335
1469.49	0.182248
1479.13	0.182767
1488.78	0.186717
1498.42	0.191595
1508.06	0.195769
1517.7	0.200646
1527.35	0.202475
1536.99	0.203574
1546.63	0.204281
1556.27	0.20489
1565.91	0.20645
1575.56	0.20898
1585.2	0.210475
1594.84	0.211206
1604.48	0.212188
1614.13	0.214817
1623.77	0.216988
1633.41	0.219559
1643.05	0.221624
1652.7	0.223293
1662.34	0.225419
1671.98	0.226547
1681.62	0.22789
1691.27	0.230047
1700.91	0.232503
1710.55	0.234671
1720.19	0.238892
1729.84	0.242191
1739.48	0.240446
1749.12	0.24103
1758.76	0.242744
1768.4	0.246272
1778.05	0.248787
1787.69	0.251979
1797.33	0.253376
1806.97	0.257001
1816.62	0.259176
1826.26	0.261556
1835.9	0.264941
1845.54	0.268583
1855.18	0.27122
1864.83	0.273826
1874.47	0.276855
1884.11	0.280019
1893.75	0.282419
1903.4	0.284344
1913.04	0.28658
1922.68	0.289728
1932.32	0.293888
1941.97	0.293339
1951.61	0.296963
1961.25	0.304246
1970.89	0.301396
1980.54	0.308266
1990.18	0.310129
1999.82	0.310071
2009.46	0.309219
2019.11	0.313325
2028.75	0.313183
2038.39	0.319707
2048.03	0.322825
2057.67	0.322981
2067.32	0.32608
2076.96	0.327484
2086.6	0.328131
2096.24	0.32821
2105.89	0.333351
2115.53	0.33335
2125.17	0.337636
2134.81	0.33957
2144.45	0.33811
2154.1	0.339396
2163.74	0.353094
2173.38	0.349206
2183.02	0.348886
2192.67	0.354292
2202.31	0.356629
2211.95	0.355949
2221.59	0.360739
2231.24	0.360114
2240.88	0.363551
2250.52	0.365399
2260.16	0.367662
2269.8	0.36767
2279.45	0.368466
2289.09	0.369806
2298.73	0.371022
2308.38	0.372152
2318.02	0.375274
2327.66	0.376397
2337.3	0.378208
2346.94	0.377076
2356.59	0.381896
2366.23	0.385361
2375.87	0.383171
2385.51	0.385744
2395.16	0.38791
2404.8	0.391453
2414.44	0.39325
2424.08	0.39489
2433.72	0.397405
2443.37	0.398939
2453.01	0.401579
2462.65	0.40279
2472.29	0.404808
2481.94	0.405087
2491.58	0.408392
2501.22	0.412099
2510.86	0.414252
2520.51	0.41261
2530.15	0.417644
2539.79	0.417511
2549.43	0.419952
2559.07	0.423127
2568.72	0.423318
2578.36	0.42666
2588	0.426729
2597.64	0.427999
2607.29	0.429157
2616.93	0.433627
2626.57	0.434958
2636.21	0.435747
2645.86	0.436785
2655.5	0.438042
2665.14	0.438561
2674.78	0.440784
2684.43	0.44286
2694.07	0.443262
2703.71	0.446054
2713.35	0.446868
2722.99	0.449858
2732.64	0.4519
2742.28	0.453724
2751.92	0.455253
2761.56	0.457043
2771.21	0.460749
2780.85	0.460832
2790.49	0.46383
2800.13	0.46515
2809.78	0.467536
2819.42	0.469586
2829.06	0.473972
2838.7	0.477932
2848.34	0.481413
2857.99	0.477812
2867.63	0.480801
2877.27	0.484147
2886.91	0.486379
2896.56	0.489619
2906.2	0.493469
2915.84	0.491966
2925.48	0.491548
2935.13	0.488042
2944.77	0.491492
2954.41	0.494301
2964.05	0.492386
2973.7	0.491488
2983.34	0.494779
2992.98	0.493506
3002.62	0.496799
3012.26	0.501114
3021.91	0.499125
3031.55	0.501502
3041.19	0.504368
3050.83	0.509075
3060.48	0.512506
3070.12	0.512695
3079.76	0.513955
3089.4	0.517977
3099.05	0.51806
3108.69	0.520633
3118.33	0.524739
3127.97	0.523402
3137.61	0.528437
3147.26	0.527486
3156.9	0.531375
3166.54	0.535241
3176.18	0.535482
3185.83	0.538234
3195.47	0.540461
3205.11	0.540739
3214.75	0.543992
3224.4	0.54346
3234.04	0.547376
3243.68	0.553198
3253.32	0.551016
3262.97	0.555188
3272.61	0.553752
3282.25	0.559508
3291.89	0.560825
3301.53	0.560135
3311.18	0.566489
3320.82	0.563747
3330.46	0.568942
3340.1	0.56715
3349.75	0.570214
3359.39	0.572599
3369.03	0.575684
3378.67	0.576188
3388.32	0.577338
3397.96	0.579696
3407.6	0.577929
3417.24	0.58025
3426.89	0.583923
3436.53	0.584558
3446.17	0.585354
3455.81	0.587152
3465.45	0.592825
3475.1	0.592337
3484.74	0.593935
3494.38	0.596193
3504.02	0.592813
3513.67	0.594486
3523.31	0.600434
3532.95	0.596478
3542.59	0.601043
3552.24	0.600097
3561.88	0.603316
3571.52	0.606704
3581.16	0.606563
3590.8	0.603488
3600.45	0.616908
3610.09	0.615222
3619.73	0.620322
3629.37	0.613272
3639.02	0.617657
3648.66	0.619973
3658.3	0.624832
3667.94	0.625342
3677.59	0.628858
3687.23	0.628528
3696.87	0.632935
3706.51	0.630914
3716.16	0.638581
3725.8	0.636747
3735.44	0.636189
3745.08	0.642491
3754.72	0.65129
3764.37	0.647017
3774.01	0.644808
3783.65	0.649539
3793.29	0.650308
3802.94	0.651623
3812.58	0.654514
3822.22	0.657232
3831.86	0.656601
3841.51	0.669519
3851.15	0.660613
3860.79	0.662983
3870.43	0.664902
3880.07	0.668136
3889.72	0.667893
3899.36	0.674532
3909	0.673591
3918.64	0.679666
3928.29	0.678134
3937.93	0.672188
3947.57	0.678979
3957.21	0.682037
3966.86	0.686896
3976.5	0.689635
3986.14	0.689659
3995.78	0.694781
