Measurement: Infrared, Infrared Data Processed
Mineral: Vanadinite
Rruff sample: R050533
Ideal chemistry: Pb^2+^_5_(V^5+^O_4_)_3_Cl
Locality: Ahumada mine, Los Lamentos, Mexico
Source: University of Arizona Mineral Museum
Description: Greenish-brown hexagonal prisms
Measured chemistry: Pb_5.00_((V_0.95_As_0.05_)O_4_)_3_Cl_1.00_
x	intensity
399.193	0.386921
408.835	0.377854
418.477	0.368248
428.12	0.313237
437.762	0.310881
447.404	0.338641
457.047	0.358178
466.689	0.382119
476.331	0.398193
485.974	0.4084
495.616	0.422473
505.258	0.434459
514.901	0.444547
524.543	0.454423
534.185	0.469769
543.828	0.476672
553.47	0.472787
563.112	0.481916
572.755	0.478175
582.397	0.483897
592.039	0.492217
601.682	0.499835
611.324	0.507242
620.966	0.515029
630.609	0.522707
640.251	0.532519
649.893	0.536576
659.536	0.541778
669.178	0.547202
678.82	0.548992
688.463	0.550866
698.105	0.549719
707.747	0.53948
717.39	0.518025
727.032	0.477256
736.674	0.430754
746.317	0.385313
755.959	0.355221
765.601	0.344577
775.244	0.355574
784.886	0.370103
794.528	0.363363
804.171	0.312821
813.813	0.251574
823.455	0.22179
833.098	0.193804
842.74	0.151725
852.382	0.111285
862.025	0.0756521
871.667	0.0523431
881.309	0.0382183
890.952	0.0296625
900.594	0.0244523
910.236	0.0223478
919.879	0.0230364
929.521	0.0228746
939.163	0.028259
948.806	0.0437915
958.448	0.0549924
968.09	0.0507642
977.733	0.0518842
987.375	0.0525112
997.017	0.0569578
1006.66	0.054307
1016.3	0.0477196
1025.94	0.0445307
1035.59	0.044293
1045.23	0.045081
1054.87	0.0455762
1064.51	0.0461703
1074.16	0.0479171
1083.8	0.0511037
1093.44	0.0536637
1103.08	0.0554094
1112.72	0.0580631
1122.37	0.06042
1132.01	0.0629314
1141.65	0.0654096
1151.3	0.0679553
1160.94	0.0702762
1170.58	0.0721099
1180.22	0.0748105
1189.86	0.0770904
1199.51	0.0796963
1209.15	0.0822259
1218.79	0.0849656
1228.43	0.0879293
1238.08	0.0909205
1247.72	0.0935896
1257.36	0.096525
1267	0.100086
1276.64	0.104246
1286.29	0.106754
1295.93	0.109837
1305.57	0.11255
1315.21	0.114016
1324.86	0.115591
1334.5	0.117582
1344.14	0.120122
1353.78	0.121597
1363.43	0.122353
1373.07	0.123741
1382.71	0.125457
1392.35	0.126994
1401.99	0.128314
1411.64	0.129037
1421.28	0.129931
1430.92	0.131084
1440.57	0.132488
1450.21	0.133634
1459.85	0.134121
1469.49	0.134474
1479.13	0.135234
1488.78	0.136591
1498.42	0.138302
1508.06	0.139716
1517.7	0.140631
1527.35	0.141134
1536.99	0.140612
1546.63	0.140002
1556.27	0.139483
1565.91	0.139194
1575.56	0.139265
1585.2	0.139364
1594.84	0.139182
1604.48	0.139256
1614.13	0.139785
1623.77	0.139938
1633.41	0.140748
1643.05	0.140851
1652.7	0.14118
1662.34	0.1412
1671.98	0.141267
1681.62	0.141546
1691.27	0.142018
1700.91	0.142622
1710.55	0.142822
1720.19	0.143333
1729.84	0.144191
1739.48	0.143834
1749.12	0.143837
1758.76	0.144478
1768.4	0.145419
1778.05	0.145652
1787.69	0.145887
1797.33	0.146169
1806.97	0.146981
1816.62	0.147589
1826.26	0.148098
1835.9	0.148332
1845.54	0.148856
1855.18	0.150162
1864.83	0.149876
1874.47	0.150941
1884.11	0.151241
1893.75	0.150939
1903.4	0.151434
1913.04	0.151702
1922.68	0.151045
1932.32	0.151781
1941.97	0.153371
1951.61	0.152708
1961.25	0.152702
1970.89	0.151054
1980.54	0.154988
1990.18	0.154416
1999.82	0.153013
2009.46	0.152693
2019.11	0.153611
2028.75	0.152329
2038.39	0.154164
2048.03	0.155398
2057.67	0.15648
2067.32	0.154921
2076.96	0.155235
2086.6	0.156998
2096.24	0.156717
2105.89	0.157555
2115.53	0.157041
2125.17	0.156787
2134.81	0.156563
2144.45	0.155802
2154.1	0.155767
2163.74	0.15685
2173.38	0.154777
2183.02	0.155967
2192.67	0.156219
2202.31	0.156144
2211.95	0.15766
2221.59	0.157479
2231.24	0.158843
2240.88	0.158232
2250.52	0.157818
2260.16	0.158291
2269.8	0.157563
2279.45	0.158472
2289.09	0.159245
2298.73	0.158767
2308.38	0.159462
2318.02	0.159574
2327.66	0.159142
2337.3	0.159369
2346.94	0.159552
2356.59	0.159395
2366.23	0.159739
2375.87	0.159038
2385.51	0.159002
2395.16	0.159711
2404.8	0.160499
2414.44	0.159491
2424.08	0.160177
2433.72	0.160761
2443.37	0.160223
2453.01	0.160771
2462.65	0.160726
2472.29	0.160752
2481.94	0.16108
2491.58	0.161041
2501.22	0.160904
2510.86	0.161696
2520.51	0.161334
2530.15	0.161768
2539.79	0.161659
2549.43	0.161648
2559.07	0.161799
2568.72	0.161523
2578.36	0.160939
2588	0.161027
2597.64	0.161251
2607.29	0.161931
2616.93	0.162053
2626.57	0.162264
2636.21	0.162026
2645.86	0.162716
2655.5	0.161812
2665.14	0.161525
2674.78	0.161924
2684.43	0.162122
2694.07	0.162527
2703.71	0.162513
2713.35	0.162127
2722.99	0.162905
2732.64	0.16252
2742.28	0.162467
2751.92	0.163025
2761.56	0.162757
2771.21	0.16338
2780.85	0.163736
2790.49	0.163507
2800.13	0.163626
2809.78	0.163704
2819.42	0.164467
2829.06	0.164071
2838.7	0.164569
2848.34	0.16426
2857.99	0.164367
2867.63	0.164147
2877.27	0.164963
2886.91	0.165595
2896.56	0.165815
2906.2	0.166255
2915.84	0.166139
2925.48	0.165625
2935.13	0.164469
2944.77	0.164468
2954.41	0.164841
2964.05	0.164339
2973.7	0.165115
2983.34	0.163858
2992.98	0.16429
3002.62	0.164701
3012.26	0.165044
3021.91	0.164807
3031.55	0.165701
3041.19	0.16564
3050.83	0.165705
3060.48	0.166275
3070.12	0.165395
3079.76	0.165895
3089.4	0.165794
3099.05	0.165914
3108.69	0.166909
3118.33	0.16651
3127.97	0.166647
3137.61	0.166868
3147.26	0.167338
3156.9	0.167412
3166.54	0.168044
3176.18	0.167639
3185.83	0.168527
3195.47	0.167963
3205.11	0.167253
3214.75	0.169251
3224.4	0.167961
3234.04	0.168573
3243.68	0.168365
3253.32	0.169152
3262.97	0.169824
3272.61	0.168629
3282.25	0.169561
3291.89	0.169477
3301.53	0.169886
3311.18	0.171165
3320.82	0.170185
3330.46	0.17059
3340.1	0.1711
3349.75	0.170865
3359.39	0.170734
3369.03	0.169975
3378.67	0.170364
3388.32	0.171932
3397.96	0.171721
3407.6	0.172613
3417.24	0.170505
3426.89	0.171882
3436.53	0.171078
3446.17	0.172059
3455.81	0.172493
3465.45	0.171351
3475.1	0.171755
3484.74	0.171709
3494.38	0.172068
3504.02	0.172538
3513.67	0.172543
3523.31	0.170836
3532.95	0.172019
3542.59	0.172489
3552.24	0.171402
3561.88	0.172635
3571.52	0.171651
3581.16	0.172982
3590.8	0.171605
3600.45	0.171679
3610.09	0.172394
3619.73	0.17277
3629.37	0.172655
3639.02	0.171744
3648.66	0.172469
3658.3	0.172975
3667.94	0.173835
3677.59	0.172709
3687.23	0.173583
3696.87	0.173853
3706.51	0.174154
3716.16	0.17344
3725.8	0.174003
3735.44	0.173745
3745.08	0.174098
3754.72	0.175822
3764.37	0.174148
3774.01	0.174556
3783.65	0.174456
3793.29	0.176436
3802.94	0.177364
3812.58	0.176085
3822.22	0.176213
3831.86	0.176134
3841.51	0.175738
3851.15	0.177027
3860.79	0.175554
3870.43	0.174317
3880.07	0.176756
3889.72	0.176367
3899.36	0.176011
3909	0.176706
3918.64	0.178426
3928.29	0.177565
3937.93	0.177953
3947.57	0.178817
3957.21	0.179456
3966.86	0.177883
3976.5	0.178664
3986.14	0.179004
3995.78	0.179452
