Measurement: Infrared, Infrared Data Processed
Mineral: Vesuvianite
Rruff sample: R050233
Ideal chemistry: (Ca,Na)_19_(Al,Mg,Fe^3+^)_13_(SiO_4_)_10_(Si_2_O_7_)_4_(OH,F,O)_10_
Locality: Ludwig, Nevada, USA
Source: Marcus Origlieri
Description: Pale green euhedral single crystal
Measured chemistry: Ca_19.00_(Al_10.04_Mg_2.54_Fe^2+^_0.42_)_Σ=13_(Si_17.96_Al_0.04_)_Σ=18_O_68_((OH)_9.66_F_0.34_)_Σ=10_ ; Boron not analyzed.
x	intensity
395.336	0.0998919
404.978	0.114015
414.62	0.11495
424.263	0.11876
433.905	0.124289
443.547	0.118139
453.19	0.1078
462.832	0.105116
472.474	0.102348
482.117	0.10377
491.759	0.10089
501.401	0.0882301
511.044	0.0712647
520.686	0.0627482
530.328	0.0587155
539.971	0.0519369
549.613	0.0502987
559.255	0.0502499
568.898	0.0561663
578.54	0.0547989
588.182	0.0487278
597.825	0.0522671
607.467	0.0553964
617.109	0.0493509
626.752	0.0436271
636.394	0.0369832
646.036	0.0328069
655.679	0.0304079
665.321	0.0277889
674.963	0.0245193
684.606	0.0258309
694.248	0.0240877
703.89	0.0222105
713.533	0.0208687
723.175	0.0191619
732.817	0.0209281
742.46	0.0233023
752.102	0.0256594
761.744	0.0298682
771.387	0.0384365
781.029	0.0502363
790.671	0.0592703
800.314	0.0603552
809.956	0.0592353
819.598	0.0606484
829.241	0.0680479
838.883	0.0751135
848.525	0.0793292
858.168	0.0814705
867.81	0.0818606
877.452	0.0833086
887.095	0.0844111
896.737	0.0829927
906.379	0.0829244
916.022	0.0873514
925.664	0.0805919
935.306	0.0749718
944.949	0.0790271
954.591	0.0845906
964.233	0.082792
973.876	0.0756383
983.518	0.0661246
993.16	0.0610365
1002.8	0.0672065
1012.45	0.0718427
1022.09	0.0665064
1031.73	0.0490546
1041.37	0.0312559
1051.01	0.017253
1060.66	0.00973752
1070.3	0.00701378
1079.94	0.0055812
1089.58	0.00458814
1099.23	0.00373976
1108.87	0.0032353
1118.51	0.00291869
1128.15	0.00220733
1137.8	0.0020445
1147.44	0.00160254
1157.08	0.00137106
1166.72	0.0010531
1176.37	0.00101939
1186.01	0.000658177
1195.65	0.000493304
1205.29	0.000391121
1214.93	0.000315739
1224.58	0.000170524
1234.22	0.00018868
1243.86	0.000325566
1253.5	0.000211115
1263.15	0.00023807
1272.79	0.000303811
1282.43	0.000501803
1292.07	0.000335101
1301.71	0.000326726
1311.36	0.000507207
1321	0.000683132
1330.64	0.000515548
1340.28	0.000509595
1349.93	0.000561881
1359.57	0.000805602
1369.21	0.000886415
1378.85	0.000902816
1388.5	0.00144062
1398.14	0.00162697
1407.78	0.00169198
1417.42	0.00230494
1427.07	0.00206229
1436.71	0.00238427
1446.35	0.00201198
1455.99	0.00266781
1465.63	0.00245704
1475.28	0.00244268
1484.92	0.0022235
1494.56	0.00224489
1504.2	0.00214081
1513.85	0.00196569
1523.49	0.00192237
1533.13	0.00165556
1542.77	0.00201366
1552.42	0.00196351
1562.06	0.00197192
1571.7	0.00185724
1581.34	0.00164748
1590.98	0.00151281
1600.63	0.00144661
1610.27	0.00149681
1619.91	0.00165231
1629.55	0.00165214
1639.2	0.00153051
1648.84	0.00178007
1658.48	0.00155336
1668.12	0.00166454
1677.77	0.00146858
1687.41	0.00155541
1697.05	0.00151623
1706.69	0.00146082
1716.34	0.00172758
1725.98	0.00117706
1735.62	0.00147584
1745.26	0.00132263
1754.9	0.0012053
1764.55	0.0012063
1774.19	0.00125263
1783.83	0.00118023
1793.47	0.00138048
1803.12	0.00104808
1812.76	0.00109844
1822.4	0.00120019
1832.04	0.00117711
1841.69	0.000974574
1851.33	0.00119491
1860.97	0.00108585
1870.61	0.00119327
1880.26	0.00103035
1889.9	0.000836527
1899.54	0.00043723
1909.18	0.000268135
1918.82	0.000565467
1928.47	0.000480458
1938.11	5.02195e-05
1947.75	-0.000496466
1957.39	0.000163324
1967.04	-0.00023825
1976.68	-0.00073775
1986.32	0.000575216
1995.96	-0.000588065
2005.61	-0.000770723
2015.25	-2.97136e-05
2024.89	-0.000879616
2034.53	-0.0017417
2044.17	-0.00233043
2053.82	-0.000189367
2063.46	-0.000317252
2073.1	-0.000732352
2082.74	5.36221e-05
2092.39	0.000495978
2102.03	9.12444e-05
2111.67	0.000112586
2121.31	0.00182965
2130.96	0.00228569
2140.6	0.00149179
2150.24	0.000179272
2159.88	-0.00013482
2169.53	-0.000330182
2179.17	-7.88442e-05
2188.81	0.000629355
2198.45	0.00113536
2208.09	0.000328266
2217.74	0.000854173
2227.38	0.000988789
2237.02	0.00100598
2246.66	-0.000141279
2256.31	0.000736593
2265.95	0.000347832
2275.59	0.000386046
2285.23	0.000452903
2294.88	0.0009297
2304.52	0.000986726
2314.16	0.000984254
2323.8	0.00105086
2333.45	0.00180323
2343.09	0.00204707
2352.73	0.00194309
2362.37	0.00280639
2372.01	0.00226246
2381.66	0.00159537
2391.3	0.0019786
2400.94	0.00146456
2410.58	0.00156419
2420.23	0.00138767
2429.87	0.0019263
2439.51	0.00162579
2449.15	0.00111973
2458.8	0.00213093
2468.44	0.00226632
2478.08	0.00204983
2487.72	0.00197687
2497.36	0.00187959
2507.01	0.0020011
2516.65	0.00225736
2526.29	0.00203779
2535.93	0.00112972
2545.58	0.00149687
2555.22	0.00189557
2564.86	0.00180457
2574.5	0.00146921
2584.14	0.00117279
2593.79	0.00128833
2603.43	0.00154929
2613.07	0.00173417
2622.72	0.00146183
2632.36	0.00115617
2642	0.00112509
2651.64	0.00120536
2661.28	0.00124391
2670.93	0.00158468
2680.57	0.00175557
2690.21	0.00169261
2699.85	0.00130546
2709.5	0.00171436
2719.14	0.00143764
2728.78	0.00150285
2738.42	0.00143057
2748.07	0.00200506
2757.71	0.00193202
2767.35	0.00147139
2776.99	0.00226233
2786.63	0.00215742
2796.28	0.00223952
2805.92	0.00244863
2815.56	0.0023731
2825.2	0.00239352
2834.85	0.00267389
2844.49	0.00245462
2854.13	0.00253742
2863.77	0.00294322
2873.41	0.0030144
2883.06	0.00245718
2892.7	0.00237157
2902.34	0.00291201
2911.99	0.00268844
2921.63	0.00334962
2931.27	0.00321734
2940.91	0.00287003
2950.55	0.00353679
2960.2	0.00272666
2969.84	0.00246932
2979.48	0.00275244
2989.12	0.00260652
2998.77	0.00291175
3008.41	0.0026577
3018.05	0.00293168
3027.69	0.0027058
3037.34	0.00336463
3046.98	0.00284181
3056.62	0.00331238
3066.26	0.00308869
3075.9	0.00315694
3085.55	0.00311775
3095.19	0.00329383
3104.83	0.00353934
3114.47	0.00325145
3124.12	0.00391093
3133.76	0.00344261
3143.4	0.00340987
3153.04	0.003422
3162.68	0.00377898
3172.33	0.00333819
3181.97	0.00381947
3191.61	0.00290379
3201.26	0.00328219
3210.9	0.00368852
3220.54	0.00337438
3230.18	0.00261126
3239.82	0.00241139
3249.47	0.00315626
3259.11	0.00237826
3268.75	0.00277016
3278.39	0.00251975
3288.04	0.00214327
3297.68	0.0021698
3307.32	0.0018049
3316.96	0.00208563
3326.61	0.00247841
3336.25	0.00228308
3345.89	0.0022889
3355.53	0.00265668
3365.17	0.00199099
3374.82	0.00289478
3384.46	0.00210268
3394.1	0.00197804
3403.74	0.00212156
3413.39	0.00208872
3423.03	0.00158746
3432.67	0.00184302
3442.31	0.00233213
3451.95	0.00236364
3461.6	0.0015352
3471.24	0.00233065
3480.88	0.000766831
3490.53	0.00129693
3500.17	0.00147023
3509.81	0.00203732
3519.45	0.00115328
3529.09	0.0021676
3538.74	0.0019407
3548.38	0.00148859
3558.02	0.00150102
3567.66	0.00160709
3577.31	0.00145386
3586.95	0.00111081
3596.59	0.0010915
3606.23	0.000435479
3615.88	-6.98468e-05
3625.52	0.000559896
3635.16	0.000838055
3644.8	-0.000375058
3654.44	-0.00071195
3664.09	-0.000661525
3673.73	-0.000415882
3683.37	-0.00117096
3693.01	-0.0029326
3702.66	-0.00261656
3712.3	-0.00259501
3721.94	-0.00334955
3731.58	-0.00204981
3741.22	-0.00240073
3750.87	-0.00170686
3760.51	-0.00341771
3770.15	-0.00226499
3779.8	-0.00297976
3789.44	-0.00368393
3799.08	-0.00276249
3808.72	-0.00313621
3818.36	-0.0034511
3828.01	-0.00234142
3837.65	-0.00237157
3847.29	-0.00348984
3856.93	-0.00308981
3866.58	-0.00348292
3876.22	-0.00344251
3885.86	-0.00293382
3895.5	-0.00349132
3905.14	-0.00354387
3914.79	-0.00415908
3924.43	-0.00354113
3934.07	-0.00347581
3943.71	-0.00248748
3953.36	-0.00352984
3963	-0.00427383
3972.64	-0.00435801
3982.28	-0.00450942
3991.93	-0.00485697
