Measurement: Infrared, Infrared Data Processed
Mineral: Viitaniemiite
Rruff sample: R060052
Ideal chemistry: NaCaAlPO_4_F_3_
Locality: Paprook, Afghanistan
Source: Marcus Origlieri
Description: Clear, colorless fragment
Measured chemistry: Na_1.00_(Ca_0.97_Mn^2+^_0.03_)_Σ=1_Al_1.00_P_1.00_O_4_(F_1.60_(OH)_1.40_)_Σ=3_
x	intensity
399.193	0.106259
408.835	0.266945
418.477	0.240215
428.12	0.188776
437.762	0.122406
447.404	0.0917725
457.047	0.124878
466.689	0.212769
476.331	0.307804
485.974	0.268444
495.616	0.235659
505.258	0.184598
514.901	0.151722
524.543	0.161577
534.185	0.180799
543.828	0.175116
553.47	0.159906
563.112	0.197068
572.755	0.2237
582.397	0.209166
592.039	0.167152
601.682	0.128282
611.324	0.148241
620.966	0.139539
630.609	0.107357
640.251	0.0858605
649.893	0.0848483
659.536	0.0832045
669.178	0.06115
678.82	0.0391124
688.463	0.0286967
698.105	0.0231134
707.747	0.0217119
717.39	0.0215308
727.032	0.0257307
736.674	0.0327795
746.317	0.0433954
755.959	0.0413187
765.601	0.0281196
775.244	0.0227477
784.886	0.0195215
794.528	0.016379
804.171	0.0154153
813.813	0.0140314
823.455	0.0133466
833.098	0.0139136
842.74	0.0133259
852.382	0.0137834
862.025	0.0144296
871.667	0.0158753
881.309	0.0173495
890.952	0.0192843
900.594	0.0211867
910.236	0.0245636
919.879	0.02804
929.521	0.0339696
939.163	0.0411393
948.806	0.0533973
958.448	0.0708351
968.09	0.100871
977.733	0.150377
987.375	0.191952
997.017	0.246658
1006.66	0.332059
1016.3	0.457454
1025.94	0.577351
1035.59	0.621414
1045.23	0.585171
1054.87	0.487506
1064.51	0.392619
1074.16	0.324632
1083.8	0.257056
1093.44	0.187938
1103.08	0.136371
1112.72	0.0981799
1122.37	0.071785
1132.01	0.0500435
1141.65	0.0331092
1151.3	0.0276969
1160.94	0.0320283
1170.58	0.0215697
1180.22	0.0118463
1189.86	0.00654386
1199.51	0.00431912
1209.15	0.0021954
1218.79	0.00143936
1228.43	0.000925696
1238.08	0.000434521
1247.72	-1.5751e-05
1257.36	-0.000326861
1267	-0.000225349
1276.64	-9.66057e-05
1286.29	-0.000517592
1295.93	-0.000731555
1305.57	-0.00162597
1315.21	-0.00100543
1324.86	-0.0011474
1334.5	-0.00125574
1344.14	-0.000916249
1353.78	-0.00128561
1363.43	-0.001558
1373.07	-0.000938466
1382.71	-0.000586784
1392.35	-0.000119015
1401.99	-0.000544009
1411.64	0.000251364
1421.28	0.000696565
1430.92	0.000369024
1440.57	0.000903259
1450.21	0.000410924
1459.85	0.000862843
1469.49	0.00127896
1479.13	0.000952866
1488.78	0.000713101
1498.42	0.00043
1508.06	2.47347e-05
1517.7	0.000796232
1527.35	0.000651532
1536.99	0.000733645
1546.63	0.000840501
1556.27	0.00110554
1565.91	0.00156941
1575.56	0.000538336
1585.2	0.00097964
1594.84	0.000851304
1604.48	0.0012618
1614.13	0.000961848
1623.77	0.000485192
1633.41	0.000835533
1643.05	0.000577036
1652.7	0.000789862
1662.34	0.000746665
1671.98	0.000488344
1681.62	0.000197829
1691.27	-0.000213868
1700.91	-0.000434448
1710.55	-0.000538524
1720.19	-0.000800093
1729.84	-4.67687e-05
1739.48	-0.000756553
1749.12	-0.00167064
1758.76	-0.00182602
1768.4	-0.000950281
1778.05	-0.00225552
1787.69	-0.00164589
1797.33	-0.00137178
1806.97	-0.00186974
1816.62	-0.00273369
1826.26	-0.00232108
1835.9	-0.00220814
1845.54	-0.00268154
1855.18	-0.00344208
1864.83	-0.00300491
1874.47	-0.0043796
1884.11	-0.000706383
1893.75	-0.00346284
1903.4	-0.00381363
1913.04	-0.00552457
1922.68	-0.00470119
1932.32	-0.00681004
1941.97	-0.0063076
1951.61	-0.00918328
1961.25	-0.0102771
1970.89	-0.0133828
1980.54	-0.00772456
1990.18	-0.00754033
1999.82	-0.00844474
2009.46	-0.0117749
2019.11	-0.0124762
2028.75	-0.0171246
2038.39	-0.00761941
2048.03	-0.0118735
2057.67	-0.00748753
2067.32	-0.0077786
2076.96	-0.00619357
2086.6	-0.00603039
2096.24	-0.00774875
2105.89	-0.0069592
2115.53	-0.00561014
2125.17	-0.00729179
2134.81	-0.0116111
2144.45	-0.0085447
2154.1	-0.0206153
2163.74	-0.00937716
2173.38	-0.00779081
2183.02	-0.00537286
2192.67	-0.00628381
2202.31	-0.00570246
2211.95	-0.0054724
2221.59	-0.00578598
2231.24	-0.00025569
2240.88	-0.00300616
2250.52	-0.00176837
2260.16	0.00235537
2269.8	0.000914123
2279.45	0.00350955
2289.09	0.00399087
2298.73	0.0053009
2308.38	0.00515414
2318.02	0.00544799
2327.66	0.00287598
2337.3	0.00177045
2346.94	0.00198132
2356.59	0.00150319
2366.23	0.00135608
2375.87	0.000643912
2385.51	-0.00060623
2395.16	0.00111467
2404.8	0.000521242
2414.44	0.000471867
2424.08	0.000931156
2433.72	0.00257221
2443.37	0.000904612
2453.01	0.00168045
2462.65	0.000797261
2472.29	0.000335995
2481.94	0.00129757
2491.58	0.0011388
2501.22	0.000557315
2510.86	0.0016705
2520.51	0.00138112
2530.15	0.00078094
2539.79	8.60082e-05
2549.43	0.0005198
2559.07	0.000476297
2568.72	0.000685277
2578.36	-0.000246016
2588	0.0025087
2597.64	0.00183048
2607.29	0.00078841
2616.93	0.00189931
2626.57	0.00204161
2636.21	0.00334894
2645.86	0.00266908
2655.5	0.00147323
2665.14	0.0017192
2674.78	0.00131507
2684.43	0.00094935
2694.07	0.00158053
2703.71	0.00383952
2713.35	0.00274735
2722.99	0.00382517
2732.64	0.00318951
2742.28	0.00148854
2751.92	0.00448793
2761.56	0.00319529
2771.21	0.00398972
2780.85	0.00378933
2790.49	0.00325184
2800.13	0.00557043
2809.78	0.00248502
2819.42	0.00329014
2829.06	0.0036131
2838.7	0.0071778
2848.34	0.00594179
2857.99	0.00631145
2867.63	0.00482475
2877.27	0.00754193
2886.91	0.00672996
2896.56	0.00559999
2906.2	0.00642818
2915.84	0.00924714
2925.48	0.0107416
2935.13	0.0111737
2944.77	0.00929485
2954.41	0.0096238
2964.05	0.0115053
2973.7	0.00695406
2983.34	0.0086732
2992.98	0.00846035
3002.62	0.00790643
3012.26	0.0082768
3021.91	0.00922288
3031.55	0.0099447
3041.19	0.0088764
3050.83	0.0117873
3060.48	0.00977887
3070.12	0.00945177
3079.76	0.00974869
3089.4	0.00980149
3099.05	0.00954445
3108.69	0.0112748
3118.33	0.0140472
3127.97	0.0128356
3137.61	0.0141431
3147.26	0.0155853
3156.9	0.0146118
3166.54	0.01532
3176.18	0.0167504
3185.83	0.0168491
3195.47	0.0179791
3205.11	0.017827
3214.75	0.0167135
3224.4	0.0191591
3234.04	0.0158646
3243.68	0.0201544
3253.32	0.0196764
3262.97	0.0220384
3272.61	0.0284464
3282.25	0.0277343
3291.89	0.03134
3301.53	0.0342956
3311.18	0.0352882
3320.82	0.0366765
3330.46	0.0398016
3340.1	0.0435865
3349.75	0.0523578
3359.39	0.0636539
3369.03	0.0795235
3378.67	0.0955057
3388.32	0.110513
3397.96	0.11243
3407.6	0.0848919
3417.24	0.057376
3426.89	0.038433
3436.53	0.0296687
3446.17	0.0253889
3455.81	0.0249033
3465.45	0.0212675
3475.1	0.0218684
3484.74	0.0163641
3494.38	0.0180225
3504.02	0.0114546
3513.67	0.011397
3523.31	0.00963811
3532.95	0.0111312
3542.59	0.00967634
3552.24	0.0100471
3561.88	0.00731369
3571.52	0.00932039
3581.16	0.00490392
3590.8	0.00249947
3600.45	0.00688919
3610.09	0.00388038
3619.73	0.00953694
3629.37	0.00281228
3639.02	0.00243086
3648.66	-0.00247918
3658.3	0.00117088
3667.94	-0.000503192
3677.59	0.00177785
3687.23	-0.00124238
3696.87	0.00231309
3706.51	0.0035714
3716.16	0.00317313
3725.8	0.0028217
3735.44	-0.000888427
3745.08	-0.00207779
3754.72	-0.00317655
3764.37	0.000430121
3774.01	-0.00145192
3783.65	0.00169647
3793.29	0.00749958
3802.94	0.00202453
3812.58	-0.00106332
3822.22	0.000425457
3831.86	-0.00217565
3841.51	0.00284163
3851.15	0.002145
3860.79	-0.00217265
3870.43	-0.000561995
3880.07	0.00167781
3889.72	0.000363358
3899.36	-0.00488645
3909	0.00295825
3918.64	0.00278931
3928.29	-0.00124804
3937.93	0.00418071
3947.57	0.000850404
3957.21	-0.00312276
3966.86	0.00293659
3976.5	-0.00304855
3986.14	0.000115835
3995.78	0.00415414
