Measurement: Infrared, Infrared Data Processed
Mineral: Vonsenite
Rruff sample: R050477
Ideal chemistry: Fe^2+^_2_Fe^3+^O_2_(BO_3_)
Locality: North Hill, Riverside, California, USA
Source: California Institute of Technology
Description: Aggregate of black granules
Measured chemistry: (Fe^2+^_0.63_Mg_0.37_)_2_Fe^3+^_1.00_BO_5_
x	intensity
374.123	0.362278
383.765	0.300029
393.407	0.290983
403.05	0.289724
412.692	0.282632
422.334	0.268344
431.976	0.265828
441.619	0.268008
451.261	0.250472
460.904	0.219704
470.546	0.196785
480.188	0.182093
489.83	0.177635
499.473	0.175227
509.115	0.168597
518.758	0.155491
528.4	0.139472
538.042	0.127829
547.684	0.119729
557.327	0.111859
566.969	0.109442
576.611	0.119603
586.254	0.13937
595.896	0.162221
605.538	0.172509
615.181	0.150519
624.823	0.120369
634.466	0.106376
644.108	0.0962385
653.75	0.0870536
663.393	0.0862054
673.035	0.0944334
682.677	0.138701
692.319	0.199398
701.962	0.195393
711.604	0.143114
721.246	0.0871344
730.889	0.0551082
740.531	0.045071
750.173	0.0409683
759.816	0.0394434
769.458	0.0391705
779.101	0.0416967
788.743	0.0385665
798.385	0.0390461
808.028	0.040621
817.67	0.0425657
827.312	0.0448335
836.955	0.0476752
846.597	0.050606
856.239	0.0533882
865.881	0.0572362
875.524	0.0614706
885.166	0.064764
894.808	0.0680369
904.451	0.0714095
914.093	0.0760978
923.736	0.0809369
933.378	0.0858463
943.02	0.0922906
952.663	0.0978777
962.305	0.0997741
971.947	0.103756
981.59	0.107842
991.232	0.113311
1000.87	0.11743
1010.52	0.120733
1020.16	0.124499
1029.8	0.12737
1039.44	0.132924
1049.09	0.139524
1058.73	0.146473
1068.37	0.152661
1078.01	0.158415
1087.65	0.16453
1097.3	0.17214
1106.94	0.180173
1116.58	0.188192
1126.22	0.199408
1135.87	0.214884
1145.51	0.234319
1155.15	0.256423
1164.79	0.283692
1174.44	0.315103
1184.08	0.347606
1193.72	0.373122
1203.36	0.397498
1213.01	0.422316
1222.65	0.436052
1232.29	0.43544
1241.93	0.412268
1251.58	0.37114
1261.22	0.327614
1270.86	0.29473
1280.5	0.265596
1290.14	0.240634
1299.79	0.206914
1309.43	0.158358
1319.07	0.10911
1328.71	0.0673957
1338.36	0.0339126
1348	0.0129548
1357.64	0.00491268
1367.28	0.00195151
1376.92	0.00017006
1386.57	-0.000573359
1396.21	-0.000886269
1405.85	-0.00108047
1415.49	-0.00098215
1425.14	-0.000880118
1434.78	-0.000649426
1444.42	-0.000835936
1454.06	-0.000632934
1463.71	-0.000507548
1473.35	0.000512075
1482.99	0.000774991
1492.63	0.00166659
1502.28	0.00297638
1511.92	0.00381623
1521.56	0.00580819
1531.2	0.00665846
1540.85	0.00883114
1550.49	0.00891323
1560.13	0.0104013
1569.77	0.00944426
1579.41	0.00903429
1589.06	0.00809742
1598.7	0.00842034
1608.34	0.00803786
1617.98	0.00834396
1627.63	0.00834503
1637.27	0.00905119
1646.91	0.00973405
1656.55	0.00939665
1666.19	0.009589
1675.84	0.0103956
1685.48	0.0109892
1695.12	0.0116268
1704.77	0.0116227
1714.41	0.0119552
1724.05	0.0122472
1733.69	0.0136321
1743.33	0.0122948
1752.98	0.0127903
1762.62	0.0135002
1772.26	0.0139047
1781.9	0.0144208
1791.55	0.0150837
1801.19	0.0151451
1810.83	0.0155998
1820.47	0.0159576
1830.12	0.0163476
1839.76	0.0161265
1849.4	0.0170509
1859.04	0.017325
1868.68	0.0177955
1878.33	0.0175335
1887.97	0.0181119
1897.61	0.0183947
1907.25	0.0188277
1916.9	0.0191324
1926.54	0.0192732
1936.18	0.0194687
1945.82	0.0186323
1955.46	0.0186188
1965.11	0.019649
1974.75	0.0181073
1984.39	0.0207872
1994.04	0.0215427
2003.68	0.0191476
2013.32	0.0198113
2022.96	0.0210161
2032.6	0.0192448
2042.25	0.0212751
2051.89	0.0233956
2061.53	0.0219438
2071.17	0.0235422
2080.82	0.0245927
2090.46	0.0241294
2100.1	0.026148
2109.74	0.02669
2119.39	0.0264587
2129.03	0.0260705
2138.67	0.0260145
2148.31	0.0250187
2157.95	0.021812
2167.6	0.0259752
2177.24	0.0237105
2186.88	0.0233989
2196.52	0.0222569
2206.17	0.0225394
2215.81	0.0212378
2225.45	0.0221502
2235.09	0.0227739
2244.74	0.0213533
2254.38	0.0217839
2264.02	0.0212642
2273.66	0.0218505
2283.3	0.0224905
2292.95	0.0222274
2302.59	0.021704
2312.23	0.0220573
2321.87	0.023553
2331.52	0.0223573
2341.16	0.0223011
2350.8	0.0212112
2360.44	0.0220663
2370.09	0.0213867
2379.73	0.0203355
2389.37	0.0201977
2399.01	0.0192676
2408.66	0.0194494
2418.3	0.0187475
2427.94	0.0184129
2437.58	0.0181034
2447.22	0.0176739
2456.87	0.0172204
2466.51	0.0160687
2476.15	0.0150661
2485.79	0.0143215
2495.44	0.0140601
2505.08	0.0137706
2514.72	0.0130543
2524.36	0.0133604
2534.01	0.0129313
2543.65	0.0127498
2553.29	0.0124529
2562.93	0.012463
2572.57	0.0127511
2582.22	0.0123949
2591.86	0.0126479
2601.5	0.0119885
2611.14	0.0126957
2620.79	0.0131934
2630.43	0.0133057
2640.07	0.0135028
2649.71	0.0140512
2659.36	0.0140928
2669	0.0138449
2678.64	0.0134704
2688.28	0.0135452
2697.93	0.0136633
2707.57	0.0134241
2717.21	0.0137006
2726.85	0.0133815
2736.49	0.012953
2746.14	0.0129384
2755.78	0.0125079
2765.42	0.0126431
2775.06	0.0122175
2784.71	0.0125375
2794.35	0.0121546
2803.99	0.0121626
2813.63	0.0124215
2823.28	0.0119286
2832.92	0.0121022
2842.56	0.0118228
2852.2	0.0105781
2861.84	0.0107542
2871.49	0.0113474
2881.13	0.0113589
2890.77	0.0115924
2900.41	0.0106657
2910.06	0.0106133
2919.7	0.00944285
2929.34	0.0100347
2938.98	0.00991672
2948.62	0.0101078
2958.27	0.0107594
2967.91	0.00990881
2977.55	0.0094268
2987.2	0.00907484
2996.84	0.0086544
3006.48	0.00922449
3016.12	0.010209
3025.76	0.00899045
3035.41	0.00836138
3045.05	0.00827257
3054.69	0.00904407
3064.33	0.00849946
3073.98	0.00817808
3083.62	0.00846377
3093.26	0.00860749
3102.9	0.00813888
3112.55	0.00791767
3122.19	0.00866321
3131.83	0.00859293
3141.47	0.00932126
3151.11	0.00844485
3160.76	0.00843465
3170.4	0.00789939
3180.04	0.00866848
3189.68	0.00839296
3199.33	0.0085032
3208.97	0.00857151
3218.61	0.00858699
3228.25	0.00834633
3237.9	0.00789353
3247.54	0.00870654
3257.18	0.00756027
3266.82	0.00792074
3276.47	0.00851025
3286.11	0.00696875
3295.75	0.00749214
3305.39	0.00767022
3315.03	0.00791313
3324.68	0.00730982
3334.32	0.0076952
3343.96	0.00858234
3353.6	0.00744051
3363.25	0.00679435
3372.89	0.00653391
3382.53	0.00722916
3392.17	0.00662664
3401.82	0.00617878
3411.46	0.00549327
3421.1	0.00594152
3430.74	0.00509219
3440.39	0.0048147
3450.03	0.00464623
3459.67	0.00450773
3469.31	0.00369412
3478.95	0.00431651
3488.6	0.00439189
3498.24	0.00308374
3507.88	0.00318742
3517.52	0.00306226
3527.17	0.00228615
3536.81	0.00173569
3546.45	0.0017997
3556.09	0.001306
3565.74	0.00146301
3575.38	0.000134617
3585.02	0.000159264
3594.66	0.00053902
3604.3	-3.36468e-05
3613.95	-0.000959948
3623.59	-0.00115144
3633.23	-0.00155239
3642.87	2.00272e-05
3652.52	-0.000345245
3662.16	-0.000580728
3671.8	0.00072895
3681.44	-0.000818789
3691.09	0.000595093
3700.73	-7.89314e-05
3710.37	-0.000392348
3720.01	-0.00199403
3729.66	-0.000829682
3739.3	-0.00166453
3748.94	0.00135772
3758.58	-0.000381589
3768.22	-0.000154719
3777.87	-0.000583381
3787.51	-0.000498787
3797.15	0.000497982
3806.79	0.000270888
3816.44	0.000770375
3826.08	-0.000876457
3835.72	0.000355899
3845.36	-8.87662e-05
3855.01	0.00045304
3864.65	0.000999138
3874.29	0.000151694
3883.93	5.31375e-05
3893.57	0.000444979
3903.22	0.00130819
3912.86	-0.000464454
3922.5	-0.000370949
3932.14	0.0010823
3941.79	-0.000712216
3951.43	-0.000372261
3961.07	-0.000918671
3970.71	-5.9858e-05
3980.36	-0.000555024
3990	0.000265628
3999.64	0.000347078
