Measurement: Infrared, Infrared Data Processed
Mineral: Vonsenite
Rruff sample: R050221
Ideal chemistry: Fe^2+^_2_Fe^3+^O_2_(BO_3_)
Locality: Monchi mine, Burguillos del Cerro, Badajoz, Extremadura, Spain
Source: Marcus Origlieri
Description: Mass of thin bladed black crystals
Measured chemistry: (Fe^2+^_1.96_Mg_0.03_Mn_0.01_)_Σ=2_(Fe^3+^_0.98_Al_0.02_)_Σ=1_BO_5_
x	intensity
372.194	0
381.836	0.16244
391.479	0.154318
401.121	0.151324
410.763	0.149232
420.406	0.146
430.048	0.150815
439.69	0.145968
449.333	0.132704
458.975	0.118247
468.617	0.107632
478.26	0.101313
487.902	0.0969972
497.544	0.0867419
507.187	0.0733877
516.829	0.0645947
526.471	0.0580919
536.114	0.0556876
545.756	0.0570581
555.398	0.0634941
565.041	0.0737697
574.683	0.0860397
584.325	0.0938568
593.968	0.0924095
603.61	0.0762571
613.252	0.0603198
622.895	0.0538871
632.537	0.0514613
642.179	0.0545869
651.822	0.0618501
661.464	0.0696162
671.106	0.0857583
680.749	0.0987023
690.391	0.0831268
700.033	0.0638315
709.676	0.0465088
719.318	0.0432892
728.96	0.0446145
738.603	0.0472694
748.245	0.049211
757.887	0.0537441
767.53	0.0532359
777.172	0.0555549
786.814	0.058564
796.457	0.0618738
806.099	0.0648767
815.741	0.0681886
825.384	0.071645
835.026	0.0750242
844.668	0.078857
854.311	0.0824187
863.953	0.0892278
873.595	0.0954432
883.238	0.0876798
892.88	0.0910116
902.522	0.0942425
912.165	0.097518
921.807	0.100139
931.449	0.103187
941.092	0.106554
950.734	0.109563
960.376	0.112132
970.019	0.114525
979.661	0.116479
989.303	0.117753
998.946	0.118963
1008.59	0.119933
1018.23	0.121254
1027.87	0.122406
1037.52	0.12304
1047.16	0.123744
1056.8	0.123651
1066.44	0.123985
1076.08	0.124602
1085.73	0.125546
1095.37	0.126694
1105.01	0.127937
1114.65	0.129723
1124.3	0.132172
1133.94	0.134789
1143.58	0.138081
1153.22	0.141253
1162.87	0.14476
1172.51	0.148548
1182.15	0.152472
1191.79	0.155334
1201.43	0.157355
1211.08	0.156535
1220.72	0.154947
1230.36	0.149651
1240	0.141885
1249.65	0.133363
1259.29	0.126474
1268.93	0.118499
1278.57	0.111275
1288.22	0.103393
1297.86	0.089036
1307.5	0.0711856
1317.14	0.0560455
1326.79	0.0451647
1336.43	0.0428272
1346.07	0.0448812
1355.71	0.0487913
1365.35	0.0530282
1375	0.057754
1384.64	0.0622874
1394.28	0.0673796
1403.92	0.0733058
1413.57	0.079033
1423.21	0.0833046
1432.85	0.0871899
1442.49	0.0922969
1452.13	0.0981965
1461.78	0.10064
1471.42	0.101266
1481.06	0.10123
1490.7	0.0998215
1500.35	0.0979838
1509.99	0.0958194
1519.63	0.0942342
1529.27	0.0934693
1538.92	0.0930329
1548.56	0.092674
1558.2	0.0923547
1567.84	0.0926255
1577.49	0.093086
1587.13	0.0938779
1596.77	0.0949301
1606.41	0.0954925
1616.06	0.0964897
1625.7	0.0975398
1635.34	0.0986114
1644.98	0.0996954
1654.62	0.100147
1664.27	0.101214
1673.91	0.101967
1683.55	0.102854
1693.19	0.103734
1702.84	0.104336
1712.48	0.10522
1722.12	0.105876
1731.76	0.106208
1741.4	0.106746
1751.05	0.107481
1760.69	0.108585
1770.33	0.109441
1779.97	0.11022
1789.62	0.110726
1799.26	0.111607
1808.9	0.111777
1818.54	0.112479
1828.19	0.113313
1837.83	0.114064
1847.47	0.114536
1857.11	0.115505
1866.76	0.115761
1876.4	0.115859
1886.04	0.116621
1895.68	0.11763
1905.33	0.11808
1914.97	0.118663
1924.61	0.118647
1934.25	0.119671
1943.89	0.120165
1953.54	0.120264
1963.18	0.121258
1972.82	0.122118
1982.46	0.123333
1992.11	0.123739
2001.75	0.12276
2011.39	0.124714
2021.03	0.123371
2030.67	0.126534
2040.32	0.126851
2049.96	0.126543
2059.6	0.124978
2069.24	0.127108
2078.89	0.127601
2088.53	0.127525
2098.17	0.128141
2107.81	0.128991
2117.46	0.129287
2127.1	0.127927
2136.74	0.128889
2146.38	0.127306
2156.03	0.128415
2165.67	0.132241
2175.31	0.130597
2184.95	0.133528
2194.59	0.13246
2204.24	0.130775
2213.88	0.132299
2223.52	0.132623
2233.16	0.132769
2242.81	0.132802
2252.45	0.133863
2262.09	0.13356
2271.73	0.134799
2281.38	0.135851
2291.02	0.135997
2300.66	0.136074
2310.3	0.136466
2319.95	0.13869
2329.59	0.139354
2339.23	0.140322
2348.87	0.138088
2358.51	0.141539
2368.16	0.141159
2377.8	0.13792
2387.44	0.137528
2397.08	0.137328
2406.73	0.137919
2416.37	0.138549
2426.01	0.138583
2435.65	0.138205
2445.3	0.138513
2454.94	0.138742
2464.58	0.139301
2474.22	0.139591
2483.86	0.139948
2493.51	0.140229
2503.15	0.140382
2512.79	0.14166
2522.43	0.14159
2532.08	0.142539
2541.72	0.142535
2551.36	0.143241
2561	0.143337
2570.65	0.144631
2580.29	0.144594
2589.93	0.145127
2599.57	0.145099
2609.22	0.146734
2618.86	0.147304
2628.5	0.147976
2638.14	0.148005
2647.78	0.149201
2657.43	0.148965
2667.07	0.148926
2676.71	0.149336
2686.35	0.149525
2696	0.149502
2705.64	0.150185
2715.28	0.15001
2724.92	0.15093
2734.57	0.150624
2744.21	0.150776
2753.85	0.151117
2763.49	0.150922
2773.14	0.151655
2782.78	0.151613
2792.42	0.152029
2802.06	0.152756
2811.7	0.153213
2821.35	0.152561
2830.99	0.153292
2840.63	0.153605
2850.27	0.152535
2859.92	0.152451
2869.56	0.15305
2879.2	0.153977
2888.84	0.15449
2898.49	0.153604
2908.13	0.15404
2917.77	0.153079
2927.41	0.150934
2937.05	0.151737
2946.7	0.152651
2956.34	0.152792
2965.98	0.153466
2975.62	0.154214
2985.27	0.154986
2994.91	0.155205
3004.55	0.15572
3014.19	0.153654
3023.84	0.156073
3033.48	0.156749
3043.12	0.158428
3052.76	0.157433
3062.41	0.158182
3072.05	0.158744
3081.69	0.15903
3091.33	0.158932
3100.97	0.159297
3110.62	0.159196
3120.26	0.159842
3129.9	0.160153
3139.54	0.160838
3149.19	0.160773
3158.83	0.161072
3168.47	0.161781
3178.11	0.161868
3187.76	0.161946
3197.4	0.163147
3207.04	0.162218
3216.68	0.16278
3226.32	0.163383
3235.97	0.162959
3245.61	0.163041
3255.25	0.163743
3264.89	0.163912
3274.54	0.165013
3284.18	0.164993
3293.82	0.16544
3303.46	0.16451
3313.11	0.165121
3322.75	0.165385
3332.39	0.165672
3342.03	0.164699
3351.68	0.165696
3361.32	0.166336
3370.96	0.166186
3380.6	0.166327
3390.24	0.166734
3399.89	0.166162
3409.53	0.167037
3419.17	0.166432
3428.81	0.166013
3438.46	0.166824
3448.1	0.167341
3457.74	0.167293
3467.38	0.168688
3477.03	0.168299
3486.67	0.167482
3496.31	0.168135
3505.95	0.168663
3515.59	0.169228
3525.24	0.169163
3534.88	0.169117
3544.52	0.169704
3554.16	0.169771
3563.81	0.170372
3573.45	0.169573
3583.09	0.169827
3592.73	0.170451
3602.38	0.169647
3612.02	0.169458
3621.66	0.169687
3631.3	0.17055
3640.95	0.170741
3650.59	0.169253
3660.23	0.169233
3669.87	0.170962
3679.51	0.170519
3689.16	0.170029
3698.8	0.170451
3708.44	0.171193
3718.08	0.172302
3727.73	0.172682
3737.37	0.173294
3747.01	0.172526
3756.65	0.173073
3766.3	0.173521
3775.94	0.173309
3785.58	0.174489
3795.22	0.17426
3804.86	0.173528
3814.51	0.173806
3824.15	0.173607
3833.79	0.174584
3843.43	0.175528
3853.08	0.174598
3862.72	0.175161
3872.36	0.17595
3882	0.176035
3891.65	0.174473
3901.29	0.176039
3910.93	0.177023
3920.57	0.175642
3930.22	0.176778
3939.86	0.177813
3949.5	0.176753
3959.14	0.176781
3968.78	0.17751
3978.43	0.178161
3988.07	0.177258
3997.71	0.178531
