Measurement: Infrared, Infrared Data Processed
Mineral: Witherite
Rruff sample: R050148
Ideal chemistry: BaCO_3_
Locality: Settlingstones mine, Fourstones, Northumberland, England
Source: Jim McGlasson
Description: Tan colored crystal fragment
Measured chemistry: (Ba_0.96_Sr_0.04_)CO_3_
x	intensity
374.123	0.0198323
383.765	0.0142595
393.407	0.0125233
403.05	0.0119988
412.692	0.0090439
422.334	0.0109114
431.976	0.00952905
441.619	0.00856337
451.261	0.00785263
460.904	0.00832414
470.546	0.00785364
480.188	0.00765397
489.83	0.00772185
499.473	0.00827518
509.115	0.00812272
518.758	0.00800666
528.4	0.00861205
538.042	0.00901087
547.684	0.00940134
557.327	0.00957519
566.969	0.00938205
576.611	0.0100528
586.254	0.0110501
595.896	0.0113648
605.538	0.0117443
615.181	0.0122811
624.823	0.0125777
634.466	0.0132103
644.108	0.0138369
653.75	0.0148769
663.393	0.016312
673.035	0.0191287
682.677	0.0298066
692.319	0.169261
701.962	0.0130936
711.604	0.0107522
721.246	0.0119502
730.889	0.0127028
740.531	0.0135921
750.173	0.014721
759.816	0.0155604
769.458	0.0163531
779.101	0.0170863
788.743	0.0176069
798.385	0.0188532
808.028	0.0203183
817.67	0.0223463
827.312	0.027166
836.955	0.0524152
846.597	0.0988598
856.239	0.230704
865.881	0.0423061
875.524	0.0249893
885.166	0.0246336
894.808	0.0225818
904.451	0.022446
914.093	0.0221133
923.736	0.0232916
933.378	0.0237875
943.02	0.024473
952.663	0.0253455
962.305	0.0265813
971.947	0.0275986
981.59	0.0289983
991.232	0.0306669
1000.87	0.0322901
1010.52	0.0337096
1020.16	0.0354063
1029.8	0.0364543
1039.44	0.037995
1049.09	0.0396603
1058.73	0.0706149
1068.37	0.0403231
1078.01	0.0412742
1087.65	0.0429356
1097.3	0.044762
1106.94	0.046771
1116.58	0.0487093
1126.22	0.0500288
1135.87	0.0524281
1145.51	0.0551347
1155.15	0.0578427
1164.79	0.0600786
1174.44	0.0635297
1184.08	0.0665423
1193.72	0.0704294
1203.36	0.0750571
1213.01	0.0804476
1222.65	0.0853594
1232.29	0.0912777
1241.93	0.0990187
1251.58	0.106977
1261.22	0.115777
1270.86	0.125659
1280.5	0.138221
1290.14	0.151586
1299.79	0.165241
1309.43	0.180204
1319.07	0.19674
1328.71	0.216842
1338.36	0.240228
1348	0.26856
1357.64	0.302532
1367.28	0.343584
1376.92	0.376481
1386.57	0.425396
1396.21	0.481646
1405.85	0.538739
1415.49	0.559459
1425.14	0.500676
1434.78	0.416211
1444.42	0.337866
1454.06	0.277105
1463.71	0.22812
1473.35	0.187728
1482.99	0.155797
1492.63	0.128013
1502.28	0.0982648
1511.92	0.0627244
1521.56	0.0276741
1531.2	0.0175605
1540.85	0.0148874
1550.49	0.0154796
1560.13	0.0149851
1569.77	0.0145102
1579.41	0.0132323
1589.06	0.0116692
1598.7	0.010463
1608.34	0.00958286
1617.98	0.00836791
1627.63	0.00808031
1637.27	0.00767738
1646.91	0.00708439
1656.55	0.00651839
1666.19	0.00583691
1675.84	0.00514145
1685.48	0.00443086
1695.12	0.00392648
1704.77	0.00417906
1714.41	0.00395641
1724.05	0.0046986
1733.69	0.0047332
1743.33	0.00958262
1752.98	0.0319047
1762.62	0.00924202
1772.26	0.00487691
1781.9	0.00520938
1791.55	0.00531491
1801.19	0.00536803
1810.83	0.00596226
1820.47	0.00640418
1830.12	0.00618591
1839.76	0.00684041
1849.4	0.00674759
1859.04	0.00694833
1868.68	0.00696876
1878.33	0.0074825
1887.97	0.00726021
1897.61	0.00756033
1907.25	0.00769544
1916.9	0.00766729
1926.54	0.00730517
1936.18	0.00726796
1945.82	0.00796215
1955.46	0.00795327
1965.11	0.00812112
1974.75	0.00926338
1984.39	0.010729
1994.04	0.0096517
2003.68	0.00865795
2013.32	0.00992909
2022.96	0.00945342
2032.6	0.0120004
2042.25	0.0108609
2051.89	0.0122131
2061.53	0.0114023
2071.17	0.0117651
2080.82	0.0122648
2090.46	0.0105597
2100.1	0.0119022
2109.74	0.0119654
2119.39	0.00986419
2129.03	0.00878687
2138.67	0.00948442
2148.31	0.00790185
2157.95	0.0088431
2167.6	0.0134155
2177.24	0.0112155
2186.88	0.0120996
2196.52	0.0122063
2206.17	0.0121839
2215.81	0.0109441
2225.45	0.0112582
2235.09	0.0113632
2244.74	0.012875
2254.38	0.0124092
2264.02	0.0122729
2273.66	0.0141126
2283.3	0.0149332
2292.95	0.0142089
2302.59	0.0138181
2312.23	0.0145003
2321.87	0.0157929
2331.52	0.0135269
2341.16	0.0134134
2350.8	0.0136301
2360.44	0.013181
2370.09	0.0127759
2379.73	0.0135826
2389.37	0.0133994
2399.01	0.0131789
2408.66	0.0144497
2418.3	0.0143633
2427.94	0.0152012
2437.58	0.0199321
2447.22	0.0297309
2456.87	0.0305739
2466.51	0.0234792
2476.15	0.0211737
2485.79	0.0180082
2495.44	0.0155704
2505.08	0.0152631
2514.72	0.0146887
2524.36	0.0145783
2534.01	0.0152579
2543.65	0.0152436
2553.29	0.015492
2562.93	0.0153223
2572.57	0.0139823
2582.22	0.013609
2591.86	0.0140538
2601.5	0.0141591
2611.14	0.0146593
2620.79	0.0146796
2630.43	0.0147635
2640.07	0.015285
2649.71	0.0154349
2659.36	0.0148508
2669	0.0141326
2678.64	0.0143726
2688.28	0.014036
2697.93	0.0136117
2707.57	0.0142968
2717.21	0.0146991
2726.85	0.0144318
2736.49	0.0140635
2746.14	0.0140283
2755.78	0.0140012
2765.42	0.014138
2775.06	0.0146101
2784.71	0.0146132
2794.35	0.0152849
2803.99	0.017065
2813.63	0.0186409
2823.28	0.0200504
2832.92	0.018625
2842.56	0.0168168
2852.2	0.0157996
2861.84	0.0160615
2871.49	0.0165286
2881.13	0.0176629
2890.77	0.0174971
2900.41	0.0169439
2910.06	0.0158966
2919.7	0.0145649
2929.34	0.0142749
2938.98	0.0154815
2948.62	0.015402
2958.27	0.0156796
2967.91	0.0169449
2977.55	0.016299
2987.2	0.017462
2996.84	0.0176748
3006.48	0.017821
3016.12	0.0188582
3025.76	0.0192074
3035.41	0.0199428
3045.05	0.0202476
3054.69	0.0207606
3064.33	0.020991
3073.98	0.0210394
3083.62	0.0214188
3093.26	0.0211044
3102.9	0.0220497
3112.55	0.0221974
3122.19	0.0221142
3131.83	0.0224431
3141.47	0.0227359
3151.11	0.022452
3160.76	0.0227549
3170.4	0.0230483
3180.04	0.0236925
3189.68	0.0236131
3199.33	0.0234533
3208.97	0.0232816
3218.61	0.0238794
3228.25	0.0241193
3237.9	0.0238608
3247.54	0.0240996
3257.18	0.0247868
3266.82	0.0248336
3276.47	0.0244165
3286.11	0.0240405
3295.75	0.02471
3305.39	0.0253932
3315.03	0.0249192
3324.68	0.0254738
3334.32	0.0250688
3343.96	0.0253852
3353.6	0.0248331
3363.25	0.0244349
3372.89	0.0258079
3382.53	0.0251857
3392.17	0.0255374
3401.82	0.0248829
3411.46	0.0253804
3421.1	0.0256167
3430.74	0.0248144
3440.39	0.025087
3450.03	0.0254148
3459.67	0.0254089
3469.31	0.0248206
3478.95	0.0255267
3488.6	0.0256495
3498.24	0.0254312
3507.88	0.0248315
3517.52	0.0243607
3527.17	0.0246708
3536.81	0.0258678
3546.45	0.0247275
3556.09	0.0257687
3565.74	0.0250738
3575.38	0.0253365
3585.02	0.0249775
3594.66	0.0252819
3604.3	0.0256374
3613.95	0.0262854
3623.59	0.0263506
3633.23	0.0264223
3642.87	0.0255552
3652.52	0.0260329
3662.16	0.0249812
3671.8	0.0267618
3681.44	0.0272062
3691.09	0.0254518
3700.73	0.0269628
3710.37	0.026057
3720.01	0.0271408
3729.66	0.0267687
3739.3	0.0277633
3748.94	0.0252283
3758.58	0.0258546
3768.22	0.0271636
3777.87	0.027376
3787.51	0.0275557
3797.15	0.0276738
3806.79	0.0272488
3816.44	0.0269025
3826.08	0.0270497
3835.72	0.0280258
3845.36	0.0275883
3855.01	0.0257729
3864.65	0.0266115
3874.29	0.0281669
3883.93	0.027304
3893.57	0.0274916
3903.22	0.0278555
3912.86	0.0284918
3922.5	0.0269019
3932.14	0.0295832
3941.79	0.0277411
3951.43	0.0281353
3961.07	0.0280854
3970.71	0.0288142
3980.36	0.0287401
3990	0.0283206
3999.64	0.0289448
