Measurement: Infrared, Infrared Data Processed
Mineral: Wohlerite
Rruff sample: R050275
Ideal chemistry: NaCa_2_(Zr^4+^,Nb^5+^)(Si_2_O_7_)(O,F)_2_
Locality: Langesundsfjord, Norway
Source: Marcus Origlieri
Description: Yellowish brown granular
x	intensity
399.193	0.142756
408.835	0.140462
418.477	0.156252
428.12	0.140031
437.762	0.143493
447.404	0.146571
457.047	0.141826
466.689	0.166193
476.331	0.146632
485.974	0.118551
495.616	0.101106
505.258	0.0832628
514.901	0.0735381
524.543	0.0933795
534.185	0.11164
543.828	0.120057
553.47	0.135722
563.112	0.0786219
572.755	0.0512342
582.397	0.0538649
592.039	0.0479937
601.682	0.06581
611.324	0.102898
620.966	0.11127
630.609	0.086761
640.251	0.0628975
649.893	0.055722
659.536	0.0576167
669.178	0.0562367
678.82	0.0462975
688.463	0.0403988
698.105	0.0448047
707.747	0.0553852
717.39	0.0707775
727.032	0.082756
736.674	0.103934
746.317	0.152543
755.959	0.161369
765.601	0.102785
775.244	0.0729539
784.886	0.0768972
794.528	0.0977299
804.171	0.135534
813.813	0.155325
823.455	0.135211
833.098	0.179011
842.74	0.232656
852.382	0.261256
862.025	0.267013
871.667	0.257326
881.309	0.236515
890.952	0.229552
900.594	0.214761
910.236	0.19497
919.879	0.177364
929.521	0.164056
939.163	0.150591
948.806	0.152927
958.448	0.138975
968.09	0.135355
977.733	0.147975
987.375	0.178057
997.017	0.171262
1006.66	0.160835
1016.3	0.155646
1025.94	0.130184
1035.59	0.116999
1045.23	0.122811
1054.87	0.11457
1064.51	0.0992371
1074.16	0.0676973
1083.8	0.0426453
1093.44	0.0277856
1103.08	0.0207264
1112.72	0.0163365
1122.37	0.0133384
1132.01	0.0116474
1141.65	0.0104621
1151.3	0.00945566
1160.94	0.00857523
1170.58	0.00719498
1180.22	0.00587358
1189.86	0.00469462
1199.51	0.00385045
1209.15	0.00349493
1218.79	0.00307637
1228.43	0.00275034
1238.08	0.0026674
1247.72	0.00255105
1257.36	0.00246533
1267	0.00261456
1276.64	0.00246121
1286.29	0.00307739
1295.93	0.00307797
1305.57	0.0033388
1315.21	0.00313687
1324.86	0.00392585
1334.5	0.00392806
1344.14	0.0042609
1353.78	0.00517726
1363.43	0.00614232
1373.07	0.0071572
1382.71	0.00804485
1392.35	0.0100553
1401.99	0.0123255
1411.64	0.0148905
1421.28	0.0168755
1430.92	0.0171688
1440.57	0.0174281
1450.21	0.0179371
1459.85	0.0171834
1469.49	0.0166456
1479.13	0.0160288
1488.78	0.0152236
1498.42	0.0139433
1508.06	0.0128973
1517.7	0.0114725
1527.35	0.0101549
1536.99	0.00959961
1546.63	0.0085685
1556.27	0.00884795
1565.91	0.00839672
1575.56	0.00835028
1585.2	0.00799434
1594.84	0.0075373
1604.48	0.00735842
1614.13	0.00720981
1623.77	0.00756165
1633.41	0.00781331
1643.05	0.00792803
1652.7	0.00790849
1662.34	0.00713701
1671.98	0.00703452
1681.62	0.00694671
1691.27	0.00677402
1700.91	0.00665789
1710.55	0.00628255
1720.19	0.0058825
1729.84	0.00581386
1739.48	0.00460581
1749.12	0.00403244
1758.76	0.00589423
1768.4	0.00606774
1778.05	0.00620154
1787.69	0.00602114
1797.33	0.00634007
1806.97	0.00618228
1816.62	0.00636798
1826.26	0.00657938
1835.9	0.00709466
1845.54	0.00617163
1855.18	0.00723015
1864.83	0.00660463
1874.47	0.00673585
1884.11	0.0065431
1893.75	0.00686778
1903.4	0.00591233
1913.04	0.00645592
1922.68	0.0055166
1932.32	0.005463
1941.97	0.00432619
1951.61	0.00438459
1961.25	0.00510966
1970.89	0.000913628
1980.54	0.0049989
1990.18	0.00568464
1999.82	0.00253265
2009.46	0.00148043
2019.11	0.00273798
2028.75	0.0041444
2038.39	0.00446544
2048.03	0.00570202
2057.67	0.00656667
2067.32	0.00564817
2076.96	0.00609213
2086.6	0.00745122
2096.24	0.00822267
2105.89	0.00753753
2115.53	0.00743099
2125.17	0.00444595
2134.81	0.00507275
2144.45	0.00303955
2154.1	0.0034745
2163.74	0.00697254
2173.38	0.0063203
2183.02	0.0108329
2192.67	0.00834588
2202.31	0.00869837
2211.95	0.0096771
2221.59	0.0127095
2231.24	0.00952752
2240.88	0.0128472
2250.52	0.011079
2260.16	0.0126578
2269.8	0.0116478
2279.45	0.0140014
2289.09	0.0140666
2298.73	0.0137241
2308.38	0.0156366
2318.02	0.01316
2327.66	0.013946
2337.3	0.0140657
2346.94	0.0139091
2356.59	0.0129954
2366.23	0.0119913
2375.87	0.0128278
2385.51	0.0141502
2395.16	0.0130237
2404.8	0.0125794
2414.44	0.0117604
2424.08	0.0130646
2433.72	0.0134288
2443.37	0.0137643
2453.01	0.0149695
2462.65	0.0146089
2472.29	0.0149818
2481.94	0.0135688
2491.58	0.0131107
2501.22	0.0155534
2510.86	0.0143316
2520.51	0.0155601
2530.15	0.0139068
2539.79	0.0145366
2549.43	0.0153414
2559.07	0.0149465
2568.72	0.0149499
2578.36	0.0150913
2588	0.0147324
2597.64	0.0146724
2607.29	0.0158156
2616.93	0.017603
2626.57	0.0169961
2636.21	0.0170284
2645.86	0.0168568
2655.5	0.0165106
2665.14	0.0170101
2674.78	0.0152852
2684.43	0.0168019
2694.07	0.016931
2703.71	0.0164683
2713.35	0.0166198
2722.99	0.0167737
2732.64	0.0172734
2742.28	0.0169543
2751.92	0.0179036
2761.56	0.0175498
2771.21	0.0185998
2780.85	0.0172437
2790.49	0.0192626
2800.13	0.0180118
2809.78	0.0177114
2819.42	0.0180675
2829.06	0.0178097
2838.7	0.0180286
2848.34	0.0172505
2857.99	0.0171276
2867.63	0.0179144
2877.27	0.0167148
2886.91	0.017655
2896.56	0.0174767
2906.2	0.0180351
2915.84	0.0182149
2925.48	0.0174525
2935.13	0.0173364
2944.77	0.0178796
2954.41	0.0179103
2964.05	0.0203354
2973.7	0.0182225
2983.34	0.0189008
2992.98	0.0196546
3002.62	0.0202987
3012.26	0.0214946
3021.91	0.0215264
3031.55	0.0206447
3041.19	0.0215411
3050.83	0.0209711
3060.48	0.0220241
3070.12	0.0210709
3079.76	0.0208347
3089.4	0.0231091
3099.05	0.0226654
3108.69	0.0208375
3118.33	0.0218097
3127.97	0.0239698
3137.61	0.0229105
3147.26	0.0211589
3156.9	0.0230445
3166.54	0.0217185
3176.18	0.023796
3185.83	0.021992
3195.47	0.0260689
3205.11	0.0211065
3214.75	0.0233504
3224.4	0.0234836
3234.04	0.0243779
3243.68	0.0255363
3253.32	0.02259
3262.97	0.0251922
3272.61	0.0246255
3282.25	0.0239998
3291.89	0.0240167
3301.53	0.0245467
3311.18	0.0263277
3320.82	0.0255186
3330.46	0.0228941
3340.1	0.0271457
3349.75	0.0281363
3359.39	0.0265286
3369.03	0.0245517
3378.67	0.0268723
3388.32	0.0248159
3397.96	0.0251693
3407.6	0.0259583
3417.24	0.0278616
3426.89	0.029054
3436.53	0.0249745
3446.17	0.026847
3455.81	0.0247847
3465.45	0.0289396
3475.1	0.0267342
3484.74	0.024727
3494.38	0.026946
3504.02	0.0243719
3513.67	0.02574
3523.31	0.0263482
3532.95	0.0280521
3542.59	0.0295968
3552.24	0.0270687
3561.88	0.0264694
3571.52	0.0258519
3581.16	0.0255697
3590.8	0.0230706
3600.45	0.0270718
3610.09	0.0256083
3619.73	0.0258393
3629.37	0.0256701
3639.02	0.0241997
3648.66	0.0251753
3658.3	0.0225495
3667.94	0.0271037
3677.59	0.0255482
3687.23	0.025017
3696.87	0.0190828
3706.51	0.0281987
3716.16	0.0256213
3725.8	0.0262979
3735.44	0.0241673
3745.08	0.0246659
3754.72	0.0234068
3764.37	0.0259974
3774.01	0.0237819
3783.65	0.0230769
3793.29	0.0264346
3802.94	0.0269893
3812.58	0.0264579
3822.22	0.0213659
3831.86	0.0291241
3841.51	0.025299
3851.15	0.0254392
3860.79	0.027068
3870.43	0.0273518
3880.07	0.0287716
3889.72	0.0240647
3899.36	0.0266212
3909	0.0246231
3918.64	0.0293745
3928.29	0.0275704
3937.93	0.0323938
3947.57	0.0274935
3957.21	0.0270042
3966.86	0.0272015
3976.5	0.0245072
3986.14	0.0279812
3995.78	0.0305682
