Measurement: Infrared, Infrared Data Processed
Mineral: Zircon
Rruff sample: R050286
Ideal chemistry: Zr^4+^SiO_4_
Locality: Renfrew County, Ontario, Canada
Source: Marcus Origlieri
Description: Brownish red prismatic crystal frozen in matrix, associated with apatite
Measured chemistry: Zr_1.00_Si_1.00_O_4_; trace amounts of Hf
x	intensity
399.193	0.166754
408.835	0.147179
418.477	0.133456
428.12	0.190609
437.762	0.149199
447.404	0.111977
457.047	0.0861411
466.689	0.0626746
476.331	0.0453091
485.974	0.0425765
495.616	0.0451035
505.258	0.0481843
514.901	0.0519732
524.543	0.0573314
534.185	0.0624775
543.828	0.0701112
553.47	0.0785137
563.112	0.089446
572.755	0.101846
582.397	0.118299
592.039	0.146667
601.682	0.191436
611.324	0.204257
620.966	0.161806
630.609	0.120671
640.251	0.101368
649.893	0.0959139
659.536	0.0938797
669.178	0.0960433
678.82	0.0988731
688.463	0.10319
698.105	0.108153
707.747	0.112839
717.39	0.119387
727.032	0.125649
736.674	0.131368
746.317	0.141736
755.959	0.155504
765.601	0.170205
775.244	0.187812
784.886	0.204289
794.528	0.213815
804.171	0.225982
813.813	0.248446
823.455	0.271074
833.098	0.291136
842.74	0.31012
852.382	0.325106
862.025	0.33247
871.667	0.333828
881.309	0.32418
890.952	0.309086
900.594	0.289895
910.236	0.271478
919.879	0.256059
929.521	0.241243
939.163	0.225655
948.806	0.215908
958.448	0.205352
968.09	0.195764
977.733	0.182953
987.375	0.16722
997.017	0.150867
1006.66	0.134548
1016.3	0.116177
1025.94	0.0995987
1035.59	0.0879477
1045.23	0.0790602
1054.87	0.0680436
1064.51	0.056509
1074.16	0.0449752
1083.8	0.0357902
1093.44	0.0287523
1103.08	0.0229498
1112.72	0.0204584
1122.37	0.0182438
1132.01	0.0164762
1141.65	0.0146801
1151.3	0.0134313
1160.94	0.0113686
1170.58	0.00949082
1180.22	0.00885878
1189.86	0.00813823
1199.51	0.00775443
1209.15	0.00798701
1218.79	0.00727293
1228.43	0.00712224
1238.08	0.00681042
1247.72	0.00668668
1257.36	0.00673886
1267	0.00740874
1276.64	0.007906
1286.29	0.00795127
1295.93	0.0084343
1305.57	0.00879701
1315.21	0.00951864
1324.86	0.00981951
1334.5	0.0102205
1344.14	0.01021
1353.78	0.0104723
1363.43	0.0108405
1373.07	0.0106902
1382.71	0.0116276
1392.35	0.0123846
1401.99	0.0122294
1411.64	0.0125235
1421.28	0.0128423
1430.92	0.0127999
1440.57	0.0128871
1450.21	0.0125668
1459.85	0.0123708
1469.49	0.0123101
1479.13	0.0138169
1488.78	0.0135102
1498.42	0.0138374
1508.06	0.0138367
1517.7	0.0138542
1527.35	0.0143042
1536.99	0.0142502
1546.63	0.0145829
1556.27	0.0145167
1565.91	0.0149132
1575.56	0.014635
1585.2	0.0154209
1594.84	0.015076
1604.48	0.0153727
1614.13	0.0155288
1623.77	0.0155423
1633.41	0.0159124
1643.05	0.0165201
1652.7	0.0168266
1662.34	0.0165996
1671.98	0.0167278
1681.62	0.0169726
1691.27	0.0169216
1700.91	0.0169032
1710.55	0.0161583
1720.19	0.0162226
1729.84	0.0163987
1739.48	0.0143663
1749.12	0.0159997
1758.76	0.0186329
1768.4	0.0201752
1778.05	0.0206061
1787.69	0.0219134
1797.33	0.0217682
1806.97	0.0219002
1816.62	0.022138
1826.26	0.0217176
1835.9	0.0228095
1845.54	0.0220389
1855.18	0.0232253
1864.83	0.0231899
1874.47	0.0230371
1884.11	0.0232544
1893.75	0.023732
1903.4	0.0243999
1913.04	0.0234512
1922.68	0.0248943
1932.32	0.0243241
1941.97	0.0254367
1951.61	0.0256276
1961.25	0.0250658
1970.89	0.0249082
1980.54	0.0279979
1990.18	0.0276765
1999.82	0.0261893
2009.46	0.0262128
2019.11	0.0266938
2028.75	0.0276057
2038.39	0.0273984
2048.03	0.0313928
2057.67	0.0313915
2067.32	0.0327918
2076.96	0.0323378
2086.6	0.03019
2096.24	0.0312849
2105.89	0.0319916
2115.53	0.031716
2125.17	0.0304895
2134.81	0.031523
2144.45	0.0336051
2154.1	0.033678
2163.74	0.0402702
2173.38	0.0359362
2183.02	0.0372083
2192.67	0.036998
2202.31	0.0401224
2211.95	0.0392564
2221.59	0.0396361
2231.24	0.038895
2240.88	0.0382133
2250.52	0.0365527
2260.16	0.0384696
2269.8	0.0392384
2279.45	0.0386135
2289.09	0.0408558
2298.73	0.0401424
2308.38	0.041452
2318.02	0.0405311
2327.66	0.0398763
2337.3	0.0401153
2346.94	0.0391203
2356.59	0.0399707
2366.23	0.0394686
2375.87	0.0384242
2385.51	0.0385714
2395.16	0.0392732
2404.8	0.0411983
2414.44	0.0411681
2424.08	0.0430203
2433.72	0.041366
2443.37	0.0422013
2453.01	0.0425813
2462.65	0.0418027
2472.29	0.0430572
2481.94	0.043083
2491.58	0.0422173
2501.22	0.0438733
2510.86	0.044641
2520.51	0.0435902
2530.15	0.0440623
2539.79	0.0442777
2549.43	0.0457194
2559.07	0.0454442
2568.72	0.0463284
2578.36	0.0461417
2588	0.0457779
2597.64	0.0460549
2607.29	0.0474031
2616.93	0.0485794
2626.57	0.045968
2636.21	0.0471703
2645.86	0.0466925
2655.5	0.0468151
2665.14	0.046882
2674.78	0.0468637
2684.43	0.0465434
2694.07	0.0468629
2703.71	0.0483771
2713.35	0.0486729
2722.99	0.0476636
2732.64	0.0483498
2742.28	0.0478797
2751.92	0.0495562
2761.56	0.0485743
2771.21	0.0491018
2780.85	0.0508924
2790.49	0.0501425
2800.13	0.0498344
2809.78	0.0514639
2819.42	0.0502095
2829.06	0.0510237
2838.7	0.0520412
2848.34	0.0515778
2857.99	0.0523067
2867.63	0.0516267
2877.27	0.0519864
2886.91	0.0523255
2896.56	0.0516731
2906.2	0.0511618
2915.84	0.05223
2925.48	0.0512825
2935.13	0.051824
2944.77	0.0529131
2954.41	0.0530272
2964.05	0.0541882
2973.7	0.0529713
2983.34	0.0545792
2992.98	0.0573698
3002.62	0.0569481
3012.26	0.0568982
3021.91	0.0560433
3031.55	0.055869
3041.19	0.0563434
3050.83	0.0564913
3060.48	0.0580334
3070.12	0.0560376
3079.76	0.056383
3089.4	0.0576884
3099.05	0.0580615
3108.69	0.0571386
3118.33	0.0580393
3127.97	0.0607033
3137.61	0.0583697
3147.26	0.0601935
3156.9	0.0603715
3166.54	0.0606447
3176.18	0.0587347
3185.83	0.0613175
3195.47	0.0574224
3205.11	0.0588205
3214.75	0.0605403
3224.4	0.0598105
3234.04	0.0629606
3243.68	0.0618569
3253.32	0.0625381
3262.97	0.0606839
3272.61	0.0620257
3282.25	0.063339
3291.89	0.0606712
3301.53	0.0626655
3311.18	0.0631452
3320.82	0.0629028
3330.46	0.0623774
3340.1	0.0610497
3349.75	0.0625889
3359.39	0.0622714
3369.03	0.0661943
3378.67	0.0639999
3388.32	0.0595534
3397.96	0.0660179
3407.6	0.0641366
3417.24	0.0637368
3426.89	0.0656494
3436.53	0.0670794
3446.17	0.0659759
3455.81	0.064872
3465.45	0.0684594
3475.1	0.0678751
3484.74	0.0660636
3494.38	0.0659342
3504.02	0.0687366
3513.67	0.0707708
3523.31	0.0675905
3532.95	0.0666613
3542.59	0.0689174
3552.24	0.0642547
3561.88	0.0654808
3571.52	0.068688
3581.16	0.068634
3590.8	0.0681522
3600.45	0.0677557
3610.09	0.0665117
3619.73	0.0632665
3629.37	0.0674955
3639.02	0.0670445
3648.66	0.0663481
3658.3	0.0726628
3667.94	0.0660217
3677.59	0.0673417
3687.23	0.0653825
3696.87	0.0677974
3706.51	0.0690314
3716.16	0.0673268
3725.8	0.0731677
3735.44	0.072514
3745.08	0.0713925
3754.72	0.0693905
3764.37	0.0761021
3774.01	0.0731724
3783.65	0.0716875
3793.29	0.0749911
3802.94	0.0679582
3812.58	0.0704347
3822.22	0.069208
3831.86	0.0746899
3841.51	0.0730704
3851.15	0.0735021
3860.79	0.0718657
3870.43	0.0751223
3880.07	0.0705127
3889.72	0.0728206
3899.36	0.0707941
3909	0.0733258
3918.64	0.0693054
3928.29	0.0733607
3937.93	0.0763127
3947.57	0.0740405
3957.21	0.0712714
3966.86	0.0724205
3976.5	0.0741407
3986.14	0.0786003
3995.78	0.0749788
