Measurement: Infrared, Infrared Data Processed
Mineral: Zircon
Rruff sample: R050203
Ideal chemistry: Zr^4+^SiO_4_
Locality: Eastern Thailand
Source: Eric Van Valkenburg
Description: Dark red water-worn single crystal
Measured chemistry: (Zr_0.99_Hf_0.01_)_Î£=1_Si_1.00_O_4_
x	intensity
50.1401	0.0223941
52.0686	0.0224963
53.9971	0.0166895
55.9255	0.0177921
57.854	0.0165202
59.7825	0.0213069
61.7109	0.0268925
63.6394	0.0253646
65.5679	0.0217769
67.4963	0.0178394
69.4248	0.0216728
71.3533	0.02685
73.2817	0.0324284
75.2102	0.0336022
77.1387	0.032092
79.0671	0.0325872
80.9956	0.0332459
82.9241	0.0344762
84.8525	0.0342238
86.781	0.0337196
88.7095	0.033858
90.6379	0.0351103
92.5664	0.0355386
94.4948	0.0358797
96.4233	0.0375809
98.3518	0.0392443
100.28	0.0393211
102.209	0.0385667
104.137	0.0387978
106.066	0.0399326
107.994	0.0410246
109.923	0.0411369
111.851	0.0412916
113.779	0.0419762
115.708	0.0433149
117.636	0.0449487
119.565	0.0455916
121.493	0.046079
123.422	0.0476164
125.35	0.0486198
127.279	0.0489901
129.207	0.0493183
131.136	0.0504786
133.064	0.0519079
134.993	0.0539377
136.921	0.0557948
138.85	0.0567051
140.778	0.0584438
142.707	0.0593125
144.635	0.0596153
146.563	0.061563
148.492	0.0630884
150.42	0.0636096
152.349	0.0649775
154.277	0.0661394
156.206	0.0669751
158.134	0.0686021
160.063	0.0701194
161.991	0.0706312
163.92	0.0713948
165.848	0.072695
167.777	0.0736548
169.705	0.0738745
171.633	0.0745882
173.562	0.075615
175.49	0.0763582
177.419	0.0768272
179.347	0.0786222
181.276	0.0796377
183.204	0.0799338
185.133	0.0810112
187.061	0.0818833
188.99	0.082304
190.918	0.0832951
192.847	0.0849609
194.775	0.0859645
196.704	0.0864282
198.632	0.0871221
200.56	0.0883798
202.489	0.0898624
204.417	0.0903463
206.346	0.0907449
208.274	0.0914014
210.203	0.0925874
212.131	0.0935704
214.06	0.0946988
215.988	0.0958028
217.917	0.0960694
219.845	0.0962637
221.774	0.0969352
223.702	0.0978708
225.631	0.0990101
227.559	0.0999494
229.488	0.100318
231.416	0.100596
233.344	0.100918
235.273	0.101629
237.201	0.102337
239.13	0.102554
241.058	0.103132
242.987	0.104544
244.915	0.105577
246.844	0.106152
248.772	0.107437
250.701	0.108997
252.629	0.109495
254.558	0.110048
256.486	0.110908
258.414	0.111601
260.343	0.112353
262.271	0.112978
264.2	0.113177
266.128	0.113416
268.057	0.114446
269.985	0.115205
271.914	0.115224
273.842	0.114631
275.771	0.114443
277.699	0.114313
279.628	0.114174
281.556	0.114505
283.485	0.114871
285.413	0.115323
287.341	0.116207
289.27	0.116362
291.198	0.116065
293.127	0.116316
295.055	0.117113
296.984	0.117348
298.912	0.117134
300.841	0.11714
302.769	0.117576
304.698	0.117327
306.626	0.11702
308.555	0.117208
310.483	0.117244
312.411	0.116758
314.34	0.116219
316.269	0.115482
318.197	0.114803
320.125	0.114008
322.054	0.112813
323.982	0.111672
325.911	0.110687
327.839	0.109505
329.768	0.10811
331.696	0.106455
333.625	0.104508
335.553	0.102496
337.482	0.100025
339.41	0.0974073
341.339	0.0944115
343.267	0.0907029
345.195	0.0869462
347.124	0.0830049
349.052	0.079739
350.981	0.0796582
352.909	0.0844585
354.838	0.091611
356.766	0.0989053
358.695	0.105342
360.623	0.110577
362.552	0.115071
364.48	0.119201
366.409	0.122933
368.337	0.125563
370.265	0.127785
372.194	0.129437
374.122	0.130209
376.051	0.130651
377.979	0.130443
379.908	0.12909
381.836	0.127375
383.765	0.125328
385.693	0.122757
387.622	0.120232
389.55	0.117479
391.479	0.114601
393.407	0.111851
395.336	0.108756
397.264	0.10564
399.192	0.102742
401.121	0.099726
403.049	0.0967278
404.978	0.0934961
406.906	0.0899302
408.835	0.0871624
410.763	0.084553
412.692	0.0813838
414.62	0.0792309
416.549	0.0798752
418.477	0.0833274
420.406	0.0880994
422.334	0.0936703
424.262	0.0998015
426.191	0.105671
428.12	0.110921
430.048	0.113741
431.976	0.111992
433.905	0.106763
435.833	0.101074
437.762	0.095533
439.69	0.0903655
441.619	0.0856313
443.547	0.0812657
445.476	0.0772748
447.404	0.073768
449.333	0.0703326
451.261	0.0674161
453.19	0.0645149
455.118	0.0617796
457.046	0.0588067
458.975	0.0556899
460.903	0.052121
462.832	0.0480331
464.76	0.0444521
466.689	0.0416098
468.617	0.0394256
470.546	0.0379025
472.474	0.0363364
474.403	0.0349968
476.331	0.0339389
478.26	0.0332527
480.188	0.032825
482.116	0.0328361
484.045	0.0330335
485.974	0.0330529
487.902	0.0328103
489.83	0.0329179
491.759	0.0332192
493.687	0.0334725
495.616	0.0338553
497.544	0.0341204
499.473	0.0342237
501.401	0.034548
503.33	0.0348264
505.258	0.0349691
507.187	0.0353189
509.115	0.0361909
511.043	0.0366493
512.972	0.0365806
514.9	0.0367204
516.829	0.0375616
518.757	0.0383285
520.686	0.0389694
522.614	0.0394236
524.543	0.0399914
526.471	0.0404281
528.4	0.0410153
530.328	0.0419403
532.257	0.0425664
534.185	0.0428759
536.114	0.0431564
538.042	0.0437193
539.971	0.0447403
541.899	0.0456424
543.827	0.0465951
545.756	0.047752
547.684	0.0487815
549.613	0.0499887
551.541	0.0513427
553.47	0.0524208
555.398	0.0541495
557.327	0.0560157
559.255	0.0572589
561.184	0.0586381
563.112	0.0606003
565.041	0.0628949
566.969	0.065121
568.898	0.0669703
570.826	0.069418
572.755	0.0722918
574.683	0.0751227
576.611	0.0779514
578.54	0.0808777
580.468	0.0841069
582.397	0.087841
584.325	0.0915545
586.254	0.0955869
588.182	0.0996868
590.111	0.103685
592.039	0.108121
593.968	0.113406
595.896	0.119096
597.824	0.124657
599.753	0.129861
601.682	0.134657
603.61	0.140512
605.538	0.144307
607.467	0.14581
609.395	0.146959
611.324	0.146012
613.252	0.143284
615.181	0.139151
617.109	0.134695
619.038	0.129713
620.966	0.124313
622.894	0.118139
624.823	0.112155
626.751	0.106348
628.68	0.100979
630.608	0.0964972
632.537	0.0922459
634.465	0.0879081
636.394	0.0842741
638.322	0.0819126
640.251	0.0803178
642.179	0.0789967
644.108	0.078412
646.036	0.0783387
647.965	0.0785339
649.893	0.0786237
651.822	0.0785507
653.75	0.0782195
655.678	0.0776585
657.607	0.0774651
659.535	0.0777311
661.464	0.0779226
663.392	0.0784432
665.321	0.0791963
667.249	0.0802755
669.178	0.0814332
671.106	0.0826475
673.035	0.0832495
674.963	0.0840256
676.892	0.0850813
678.82	0.0865079
680.749	0.0879668
682.677	0.0888574
684.606	0.0893765
686.534	0.090888
688.462	0.0924882
690.391	0.0937973
692.319	0.0945287
694.248	0.0953412
696.176	0.0960412
698.105	0.0959577
700.033	0.0955034
