Measurement: Infrared, Infrared Data Processed
Mineral: Zunyite
Rruff sample: R050553
Ideal chemistry: Al_13_Si_5_O_20_(OH,F)_18_Cl
Locality: near Quartzsite, Yuma/La Paz Counties, Arizona, USA
Source: Dave Bunk Minerals
Description: Light gray crystals showing combined octahedral and tetrahedral forms
Measured chemistry: (Al_12.99_Fe^3+^_0.01_)_Σ=13_Si_5.00_O_20_((OH)_14.89_F_3.11_)_Σ=18_Cl_1.00_
x	intensity
399.193	0.321294
408.835	0.312734
418.477	0.33193
428.12	0.35244
437.762	0.368829
447.404	0.367459
457.047	0.292246
466.689	0.261014
476.331	0.282254
485.974	0.235654
495.616	0.173432
505.258	0.128986
514.901	0.120507
524.543	0.131946
534.185	0.148861
543.828	0.152899
553.47	0.145928
563.112	0.148898
572.755	0.173092
582.397	0.218351
592.039	0.265282
601.682	0.295905
611.324	0.317954
620.966	0.332879
630.609	0.330936
640.251	0.304959
649.893	0.265878
659.536	0.231975
669.178	0.203413
678.82	0.1801
688.463	0.164637
698.105	0.204539
707.747	0.296922
717.39	0.282435
727.032	0.199487
736.674	0.142659
746.317	0.10772
755.959	0.0809396
765.601	0.0570616
775.244	0.0387256
784.886	0.0310223
794.528	0.028638
804.171	0.0255834
813.813	0.0242129
823.455	0.0250338
833.098	0.026964
842.74	0.0320311
852.382	0.0421149
862.025	0.0644183
871.667	0.114584
881.309	0.200938
890.952	0.252797
900.594	0.20416
910.236	0.130878
919.879	0.0801779
929.521	0.05294
939.163	0.0419415
948.806	0.0409181
958.448	0.0441651
968.09	0.0622782
977.733	0.119743
987.375	0.242984
997.017	0.263395
1006.66	0.145716
1016.3	0.0725988
1025.94	0.0509756
1035.59	0.0516467
1045.23	0.0923823
1054.87	0.169119
1064.51	0.161083
1074.16	0.0909824
1083.8	0.0638133
1093.44	0.0562009
1103.08	0.0609312
1112.72	0.0802649
1122.37	0.131567
1132.01	0.159364
1141.65	0.131057
1151.3	0.0867032
1160.94	0.0945857
1170.58	0.187461
1180.22	0.143423
1189.86	0.0604125
1199.51	0.0309772
1209.15	0.0206428
1218.79	0.0165887
1228.43	0.0151205
1238.08	0.0134815
1247.72	0.0111398
1257.36	0.00868918
1267	0.00729621
1276.64	0.00636273
1286.29	0.00558775
1295.93	0.00493686
1305.57	0.00402548
1315.21	0.00388108
1324.86	0.00360351
1334.5	0.0033997
1344.14	0.00350388
1353.78	0.00357107
1363.43	0.00358919
1373.07	0.00351658
1382.71	0.00337511
1392.35	0.00333588
1401.99	0.00310614
1411.64	0.00336628
1421.28	0.00324274
1430.92	0.00302462
1440.57	0.00285413
1450.21	0.00301907
1459.85	0.00336327
1469.49	0.00300732
1479.13	0.00258895
1488.78	0.00281621
1498.42	0.00303464
1508.06	0.00344536
1517.7	0.0027172
1527.35	0.00287179
1536.99	0.00329098
1546.63	0.00317177
1556.27	0.00341877
1565.91	0.00310503
1575.56	0.00415329
1585.2	0.00396351
1594.84	0.00380162
1604.48	0.00437141
1614.13	0.00479896
1623.77	0.00491799
1633.41	0.0049569
1643.05	0.00522594
1652.7	0.00556277
1662.34	0.00485751
1671.98	0.00481786
1681.62	0.00406081
1691.27	0.00435999
1700.91	0.00445775
1710.55	0.00415591
1720.19	0.00371144
1729.84	0.00371876
1739.48	0.0042142
1749.12	0.0032801
1758.76	0.00335888
1768.4	0.00272578
1778.05	0.00309948
1787.69	0.00276275
1797.33	0.00383251
1806.97	0.00330664
1816.62	0.00293928
1826.26	0.00369032
1835.9	0.0037271
1845.54	0.00402946
1855.18	0.00334375
1864.83	0.00398096
1874.47	0.00345959
1884.11	0.0041163
1893.75	0.00373108
1903.4	0.00287949
1913.04	0.00270156
1922.68	0.00125781
1932.32	0.00232517
1941.97	0.000395494
1951.61	-0.000943062
1961.25	-0.00326769
1970.89	-0.00733869
1980.54	-0.00612897
1990.18	-0.00269364
1999.82	-0.00257173
2009.46	-0.00328938
2019.11	-0.00703718
2028.75	-0.00185542
2038.39	0.000269864
2048.03	0.000801239
2057.67	0.00447336
2067.32	0.00248418
2076.96	0.0030924
2086.6	0.00230174
2096.24	0.00214138
2105.89	0.00170043
2115.53	-9.44845e-05
2125.17	-8.3794e-06
2134.81	-0.00146419
2144.45	0.000716433
2154.1	-0.00373951
2163.74	0.00377132
2173.38	0.00454725
2183.02	0.00218761
2192.67	0.0043762
2202.31	0.00213
2211.95	0.00039248
2221.59	0.00418868
2231.24	0.0045305
2240.88	0.00227201
2250.52	0.00665716
2260.16	0.00680784
2269.8	0.00719523
2279.45	0.00856024
2289.09	0.0100898
2298.73	0.0119102
2308.38	0.0109104
2318.02	0.00974468
2327.66	0.00971077
2337.3	0.00765987
2346.94	0.00672326
2356.59	0.00645727
2366.23	0.00582818
2375.87	0.00640896
2385.51	0.00497352
2395.16	0.00670896
2404.8	0.00513503
2414.44	0.00793267
2424.08	0.00624599
2433.72	0.00612897
2443.37	0.00802363
2453.01	0.00629191
2462.65	0.00782965
2472.29	0.00734262
2481.94	0.00600856
2491.58	0.00646583
2501.22	0.00733867
2510.86	0.00578774
2520.51	0.00639842
2530.15	0.00812278
2539.79	0.00733865
2549.43	0.00805161
2559.07	0.00746641
2568.72	0.00837214
2578.36	0.00793877
2588	0.00950008
2597.64	0.00796296
2607.29	0.00884493
2616.93	0.00939965
2626.57	0.00844356
2636.21	0.00806421
2645.86	0.00898108
2655.5	0.00972283
2665.14	0.00828113
2674.78	0.00862783
2684.43	0.00779972
2694.07	0.00791374
2703.71	0.00925321
2713.35	0.00879726
2722.99	0.00944326
2732.64	0.0085784
2742.28	0.00902672
2751.92	0.00931354
2761.56	0.0109481
2771.21	0.0105716
2780.85	0.00889895
2790.49	0.00963148
2800.13	0.011148
2809.78	0.0113978
2819.42	0.0110554
2829.06	0.0120469
2838.7	0.010729
2848.34	0.0121643
2857.99	0.012904
2867.63	0.0111618
2877.27	0.0134094
2886.91	0.0119881
2896.56	0.0123354
2906.2	0.0129207
2915.84	0.0148434
2925.48	0.0142798
2935.13	0.0144712
2944.77	0.0126297
2954.41	0.0121581
2964.05	0.0130975
2973.7	0.0128448
2983.34	0.0132788
2992.98	0.0146067
3002.62	0.0143867
3012.26	0.0141397
3021.91	0.0151168
3031.55	0.0159016
3041.19	0.0143452
3050.83	0.0142247
3060.48	0.0154262
3070.12	0.0160587
3079.76	0.0175065
3089.4	0.0173306
3099.05	0.0190338
3108.69	0.0186956
3118.33	0.0188447
3127.97	0.0200268
3137.61	0.02264
3147.26	0.0232512
3156.9	0.0257866
3166.54	0.0303999
3176.18	0.028628
3185.83	0.0290229
3195.47	0.0318297
3205.11	0.0292829
3214.75	0.033149
3224.4	0.0326058
3234.04	0.0357761
3243.68	0.0367554
3253.32	0.0429231
3262.97	0.0569503
3272.61	0.0688432
3282.25	0.0793542
3291.89	0.0971847
3301.53	0.13057
3311.18	0.177692
3320.82	0.225233
3330.46	0.23939
3340.1	0.21152
3349.75	0.160106
3359.39	0.117879
3369.03	0.0727949
3378.67	0.0420613
3388.32	0.0286504
3397.96	0.0177849
3407.6	0.0204775
3417.24	0.013876
3426.89	0.0175695
3436.53	0.0236181
3446.17	0.0228469
3455.81	0.0200979
3465.45	0.0273462
3475.1	0.0243626
3484.74	0.0264538
3494.38	0.0258501
3504.02	0.021557
3513.67	0.0188193
3523.31	0.0149084
3532.95	0.0144371
3542.59	0.0142933
3552.24	0.0109397
3561.88	0.0126168
3571.52	0.0138775
3581.16	0.0165439
3590.8	0.0234571
3600.45	0.0187979
3610.09	0.0318299
3619.73	0.037231
3629.37	0.0938363
3639.02	0.024399
3648.66	0.0117322
3658.3	0.00828291
3667.94	0.00691275
3677.59	0.0100517
3687.23	0.00506069
3696.87	0.0059412
3706.51	0.00297098
3716.16	0.00722623
3725.8	0.00632351
3735.44	0.00458548
3745.08	0.00621348
3754.72	0.00399407
3764.37	0.00780893
3774.01	0.00785418
3783.65	0.0044014
3793.29	0.00419008
3802.94	0.009394
3812.58	0.00315687
3822.22	0.008741
3831.86	0.00797956
3841.51	0.00502844
3851.15	0.00654984
3860.79	0.0085494
3870.43	0.0132836
3880.07	0.00471403
3889.72	0.00850115
3899.36	0.00645803
3909	0.00599158
3918.64	0.00617889
3928.29	0.00501867
3937.93	0.00613138
3947.57	0.00492629
3957.21	0.00738799
3966.86	0.0109882
3976.5	0.0101319
3986.14	0.00612002
3995.78	0.00607371
