Measurement: Infrared, Infrared Data RAW
Mineral: Cubic zirconia
Rruff sample: R040142
Ideal chemistry: ZrO_2_
Locality: synthetic
Source: Bob Downs
Description: Fragment of a colorless single crystal
Measured chemistry: (Zr_0.86_Y_0.17_Hf_0.01_)O_2_
x	intensity
399.193	0.306427
408.835	0.309063
418.477	0.305098
428.12	0.298362
437.762	0.288574
447.404	0.279771
457.047	0.271136
466.689	0.257904
476.331	0.245748
485.974	0.237496
495.616	0.228237
505.258	0.219564
514.901	0.209829
524.543	0.201865
534.185	0.19495
543.828	0.190429
553.47	0.186072
563.112	0.180134
572.755	0.173475
582.397	0.166062
592.039	0.157826
601.682	0.147961
611.324	0.137161
620.966	0.12488
630.609	0.111568
640.251	0.099579
649.893	0.088801
659.536	0.080548
669.178	0.0742
678.82	0.068519
688.463	0.064847
698.105	0.061956
707.747	0.059038
717.39	0.055991
727.032	0.053171
736.674	0.049827
746.317	0.044729
755.959	0.038899
765.601	0.033474
775.244	0.030473
784.886	0.027215
794.528	0.025504
804.171	0.023261
813.813	0.019693
823.455	0.018764
833.098	0.017953
842.74	0.017465
852.382	0.016584
862.025	0.015684
871.667	0.015131
881.309	0.014902
890.952	0.01482
900.594	0.015036
910.236	0.015255
919.879	0.015848
929.521	0.016127
939.163	0.01696
948.806	0.01777
958.448	0.018601
968.09	0.020003
977.733	0.021397
987.375	0.0236
997.017	0.024966
1006.66	0.026056
1016.3	0.027852
1025.94	0.028273
1035.59	0.029155
1045.23	0.030387
1054.87	0.032206
1064.51	0.033262
1074.16	0.035131
1083.8	0.040854
1093.44	0.044886
1103.08	0.045388
1112.72	0.043002
1122.37	0.040832
1132.01	0.03826
1141.65	0.03621
1151.3	0.034693
1160.94	0.034647
1170.58	0.034454
1180.22	0.034192
1189.86	0.0335
1199.51	0.032026
1209.15	0.030177
1218.79	0.028614
1228.43	0.028003
1238.08	0.028609
1247.72	0.029233
1257.36	0.029802
1267	0.03029
1276.64	0.030872
1286.29	0.031505
1295.93	0.031799
1305.57	0.032735
1315.21	0.033388
1324.86	0.034414
1334.5	0.035105
1344.14	0.036287
1353.78	0.037058
1363.43	0.038197
1373.07	0.039033
1382.71	0.04022
1392.35	0.041173
1401.99	0.042188
1411.64	0.043369
1421.28	0.04416
1430.92	0.044818
1440.57	0.046023
1450.21	0.046961
1459.85	0.047808
1469.49	0.047883
1479.13	0.048144
1488.78	0.048864
1498.42	0.049904
1508.06	0.051352
1517.7	0.052038
1527.35	0.053043
1536.99	0.054589
1546.63	0.055749
1556.27	0.05729
1565.91	0.057893
1575.56	0.059265
1585.2	0.059446
1594.84	0.060189
1604.48	0.060881
1614.13	0.061208
1623.77	0.061724
1633.41	0.062344
1643.05	0.062705
1652.7	0.06456
1662.34	0.063883
1671.98	0.064518
1681.62	0.064844
1691.27	0.065239
1700.91	0.066746
1710.55	0.067004
1720.19	0.068626
1729.84	0.069217
1739.48	0.069812
1749.12	0.069703
1758.76	0.070209
1768.4	0.070898
1778.05	0.071952
1787.69	0.072164
1797.33	0.072984
1806.97	0.073896
1816.62	0.074091
1826.26	0.075055
1835.9	0.075809
1845.54	0.076901
1855.18	0.077467
1864.83	0.078707
1874.47	0.078984
1884.11	0.079908
1893.75	0.081081
1903.4	0.08137
1913.04	0.081672
1922.68	0.082348
1932.32	0.084696
1941.97	0.08237
1951.61	0.084723
1961.25	0.085319
1970.89	0.085056
1980.54	0.08816
1990.18	0.089842
1999.82	0.087813
2009.46	0.088889
2019.11	0.088839
2028.75	0.088786
2038.39	0.091017
2048.03	0.09177
2057.67	0.094078
2067.32	0.093259
2076.96	0.094347
2086.6	0.094507
2096.24	0.093823
2105.89	0.095935
2115.53	0.096818
2125.17	0.096306
2134.81	0.094679
2144.45	0.095716
2154.1	0.095184
2163.74	0.099976
2173.38	0.099171
2183.02	0.099916
2192.67	0.101771
2202.31	0.102036
2211.95	0.102576
2221.59	0.102294
2231.24	0.104722
2240.88	0.103389
2250.52	0.102893
2260.16	0.104625
2269.8	0.105854
2279.45	0.106381
2289.09	0.106123
2298.73	0.108179
2308.38	0.10821
2318.02	0.10888
2327.66	0.109628
2337.3	0.1098
2346.94	0.109447
2356.59	0.111229
2366.23	0.111085
2375.87	0.110453
2385.51	0.110757
2395.16	0.110816
2404.8	0.110873
2414.44	0.111966
2424.08	0.112973
2433.72	0.112136
2443.37	0.113797
2453.01	0.114608
2462.65	0.114508
2472.29	0.114677
2481.94	0.115954
2491.58	0.115959
2501.22	0.116499
2510.86	0.117717
2520.51	0.117309
2530.15	0.11795
2539.79	0.119013
2549.43	0.119034
2559.07	0.119202
2568.72	0.120967
2578.36	0.12048
2588	0.121076
2597.64	0.121283
2607.29	0.12221
2616.93	0.122356
2626.57	0.123248
2636.21	0.123946
2645.86	0.123748
2655.5	0.124195
2665.14	0.123888
2674.78	0.124679
2684.43	0.124776
2694.07	0.125159
2703.71	0.126033
2713.35	0.126909
2722.99	0.126378
2732.64	0.127187
2742.28	0.128081
2751.92	0.128495
2761.56	0.128823
2771.21	0.129905
2780.85	0.129523
2790.49	0.129881
2800.13	0.130598
2809.78	0.130325
2819.42	0.131384
2829.06	0.131535
2838.7	0.13189
2848.34	0.133277
2857.99	0.134516
2867.63	0.1342
2877.27	0.134361
2886.91	0.135085
2896.56	0.135905
2906.2	0.135516
2915.84	0.1369
2925.48	0.137539
2935.13	0.138688
2944.77	0.13736
2954.41	0.138714
2964.05	0.137878
2973.7	0.138483
2983.34	0.138451
2992.98	0.138986
3002.62	0.138894
3012.26	0.139692
3021.91	0.139089
3031.55	0.140505
3041.19	0.140802
3050.83	0.141347
3060.48	0.141869
3070.12	0.141888
3079.76	0.142355
3089.4	0.143518
3099.05	0.143306
3108.69	0.144386
3118.33	0.144427
3127.97	0.144932
3137.61	0.145923
3147.26	0.146834
3156.9	0.146292
3166.54	0.147025
3176.18	0.147732
3185.83	0.147912
3195.47	0.148139
3205.11	0.148571
3214.75	0.148483
3224.4	0.14819
3234.04	0.149696
3243.68	0.150346
3253.32	0.149692
3262.97	0.150345
3272.61	0.151184
3282.25	0.151426
3291.89	0.151573
3301.53	0.152093
3311.18	0.152195
3320.82	0.15277
3330.46	0.152844
3340.1	0.153393
3349.75	0.152686
3359.39	0.153109
3369.03	0.152551
3378.67	0.154072
3388.32	0.154495
3397.96	0.155311
3407.6	0.155145
3417.24	0.155892
3426.89	0.156328
3436.53	0.155637
3446.17	0.156213
3455.81	0.155944
3465.45	0.155872
3475.1	0.156233
3484.74	0.157692
3494.38	0.158108
3504.02	0.1578
3513.67	0.157933
3523.31	0.158449
3532.95	0.158787
3542.59	0.158577
3552.24	0.157838
3561.88	0.158412
3571.52	0.16009
3581.16	0.159406
3590.8	0.158058
3600.45	0.160848
3610.09	0.158392
3619.73	0.158026
3629.37	0.159927
3639.02	0.160867
3648.66	0.158769
3658.3	0.160179
3667.94	0.158175
3677.59	0.161934
3687.23	0.159777
3696.87	0.160794
3706.51	0.160645
3716.16	0.15996
3725.8	0.161573
3735.44	0.163612
3745.08	0.161176
3754.72	0.163029
3764.37	0.163008
3774.01	0.164362
3783.65	0.16379
3793.29	0.161882
3802.94	0.164224
3812.58	0.164253
3822.22	0.166556
3831.86	0.165379
3841.51	0.166189
3851.15	0.168599
3860.79	0.166446
3870.43	0.167036
3880.07	0.168729
3889.72	0.166476
3899.36	0.167929
3909	0.169106
3918.64	0.168335
3928.29	0.167358
3937.93	0.168707
3947.57	0.16991
3957.21	0.169921
3966.86	0.170155
3976.5	0.169062
3986.14	0.170281
3995.78	0.169711
