Measurement: Infrared, Infrared Data RAW
Mineral: Gaspeite
Rruff sample: R040157
Ideal chemistry: Ni^2+^CO_3_
Locality: Lemieux Township, Gaspe Nord County, Gaspe Peninsula, Quebec, Canada
Source: University of Arizona Mineral Museum
Description: Green massive
Measured chemistry: (Ni_0.54_Mg_0.31_Fe_0.15_Ca_0.01_Co_0.01_)C_1.00_O_3_; = the gray bands. Light grey bands are also gaspeite: (Ni_0.57_Mg_0.41_Fe_0.08_)C_0.97_O_3_; Dark grey bands, magnesite: (Mg_0.98_Fe_0.04_Ni_0.03_)C_0.97_O_3_
x	intensity
399.193	0.173832
408.835	0.142873
418.477	0.107294
428.12	0.080938
437.762	0.064265
447.404	0.051451
457.047	0.044203
466.689	0.040044
476.331	0.034522
485.974	0.028046
495.616	0.023166
505.258	0.019978
514.901	0.018031
524.543	0.016431
534.185	0.015368
543.828	0.014869
553.47	0.015282
563.112	0.015852
572.755	0.015921
582.397	0.016677
592.039	0.017453
601.682	0.018071
611.324	0.019171
620.966	0.020153
630.609	0.020948
640.251	0.022679
649.893	0.024801
659.536	0.027207
669.178	0.030543
678.82	0.030665
688.463	0.029568
698.105	0.030856
707.747	0.032995
717.39	0.035768
727.032	0.042076
736.674	0.058602
746.317	0.119921
755.959	0.090244
765.601	0.026143
775.244	0.022035
784.886	0.023847
794.528	0.026395
804.171	0.029784
813.813	0.034153
823.455	0.040342
833.098	0.05172
842.74	0.076495
852.382	0.113328
862.025	0.206431
871.667	0.251096
881.309	0.178164
890.952	0.087321
900.594	0.03674
910.236	0.033429
919.879	0.035975
929.521	0.039954
939.163	0.0464
948.806	0.05337
958.448	0.05716
968.09	0.060197
977.733	0.063846
987.375	0.067975
997.017	0.074507
1006.66	0.083615
1016.3	0.092863
1025.94	0.097884
1035.59	0.093931
1045.23	0.083522
1054.87	0.075895
1064.51	0.072535
1074.16	0.072836
1083.8	0.075004
1093.44	0.074306
1103.08	0.071824
1112.72	0.072211
1122.37	0.07412
1132.01	0.076771
1141.65	0.0796
1151.3	0.082535
1160.94	0.086062
1170.58	0.090138
1180.22	0.094627
1189.86	0.100158
1199.51	0.107673
1209.15	0.113733
1218.79	0.118088
1228.43	0.122184
1238.08	0.127397
1247.72	0.13366
1257.36	0.141191
1267	0.149571
1276.64	0.159653
1286.29	0.170977
1295.93	0.183165
1305.57	0.196547
1315.21	0.211554
1324.86	0.228778
1334.5	0.24757
1344.14	0.268897
1353.78	0.29214
1363.43	0.318435
1373.07	0.348639
1382.71	0.38404
1392.35	0.417916
1401.99	0.451224
1411.64	0.477349
1421.28	0.474557
1430.92	0.452514
1440.57	0.420456
1450.21	0.387156
1459.85	0.354354
1469.49	0.322403
1479.13	0.292614
1488.78	0.263774
1498.42	0.234847
1508.06	0.205269
1517.7	0.17505
1527.35	0.146205
1536.99	0.118797
1546.63	0.09401
1556.27	0.071779
1565.91	0.04868
1575.56	0.026177
1585.2	0.013504
1594.84	0.010941
1604.48	0.011064
1614.13	0.01071
1623.77	0.010059
1633.41	0.008722
1643.05	0.007652
1652.7	0.00748
1662.34	0.006677
1671.98	0.006456
1681.62	0.006331
1691.27	0.00601
1700.91	0.006182
1710.55	0.005387
1720.19	0.005176
1729.84	0.004843
1739.48	0.004234
1749.12	0.004357
1758.76	0.004646
1768.4	0.004975
1778.05	0.005513
1787.69	0.006351
1797.33	0.007093
1806.97	0.009044
1816.62	0.011158
1826.26	0.013138
1835.9	0.011665
1845.54	0.009102
1855.18	0.006651
1864.83	0.005585
1874.47	0.004982
1884.11	0.004427
1893.75	0.004929
1903.4	0.004236
1913.04	0.005582
1922.68	0.00546
1932.32	0.003697
1941.97	0.004149
1951.61	0.004011
1961.25	0.004546
1970.89	0.002317
1980.54	0.005345
1990.18	0.004361
1999.82	0.002942
2009.46	0.003119
2019.11	0.00453
2028.75	0.003264
2038.39	0.006228
2048.03	0.006134
2057.67	0.00497
2067.32	0.007238
2076.96	0.008053
2086.6	0.007798
2096.24	0.008193
2105.89	0.008385
2115.53	0.009203
2125.17	0.008125
2134.81	0.006955
2144.45	0.007898
2154.1	0.005564
2163.74	0.00912
2173.38	0.009068
2183.02	0.010772
2192.67	0.008731
2202.31	0.010667
2211.95	0.010231
2221.59	0.01132
2231.24	0.011635
2240.88	0.011781
2250.52	0.010765
2260.16	0.01171
2269.8	0.012316
2279.45	0.013674
2289.09	0.01367
2298.73	0.014384
2308.38	0.013592
2318.02	0.014663
2327.66	0.013934
2337.3	0.01303
2346.94	0.013276
2356.59	0.013522
2366.23	0.013283
2375.87	0.013248
2385.51	0.013104
2395.16	0.013589
2404.8	0.013026
2414.44	0.013388
2424.08	0.013902
2433.72	0.013754
2443.37	0.014375
2453.01	0.014419
2462.65	0.015303
2472.29	0.016375
2481.94	0.016436
2491.58	0.018304
2501.22	0.021775
2510.86	0.022753
2520.51	0.021847
2530.15	0.021303
2539.79	0.020237
2549.43	0.020041
2559.07	0.018684
2568.72	0.017419
2578.36	0.017729
2588	0.017736
2597.64	0.017756
2607.29	0.017188
2616.93	0.017919
2626.57	0.017109
2636.21	0.017455
2645.86	0.016693
2655.5	0.016678
2665.14	0.016292
2674.78	0.015693
2684.43	0.015809
2694.07	0.015118
2703.71	0.016209
2713.35	0.015815
2722.99	0.015615
2732.64	0.016047
2742.28	0.015929
2751.92	0.015983
2761.56	0.015582
2771.21	0.015981
2780.85	0.015707
2790.49	0.015886
2800.13	0.015508
2809.78	0.016085
2819.42	0.016417
2829.06	0.017266
2838.7	0.017907
2848.34	0.01885
2857.99	0.019146
2867.63	0.019403
2877.27	0.020002
2886.91	0.020308
2896.56	0.019932
2906.2	0.020411
2915.84	0.020569
2925.48	0.020923
2935.13	0.020451
2944.77	0.020611
2954.41	0.020254
2964.05	0.021787
2973.7	0.021283
2983.34	0.02088
2992.98	0.021364
3002.62	0.020724
3012.26	0.021543
3021.91	0.022047
3031.55	0.021875
3041.19	0.02232
3050.83	0.021953
3060.48	0.023136
3070.12	0.023376
3079.76	0.023173
3089.4	0.024009
3099.05	0.02413
3108.69	0.025434
3118.33	0.024468
3127.97	0.025466
3137.61	0.02683
3147.26	0.025687
3156.9	0.027973
3166.54	0.028401
3176.18	0.027698
3185.83	0.028749
3195.47	0.028166
3205.11	0.028372
3214.75	0.029301
3224.4	0.03009
3234.04	0.030203
3243.68	0.029369
3253.32	0.030362
3262.97	0.030464
3272.61	0.030198
3282.25	0.031662
3291.89	0.030628
3301.53	0.031125
3311.18	0.030083
3320.82	0.031062
3330.46	0.031841
3340.1	0.030591
3349.75	0.030511
3359.39	0.031352
3369.03	0.03191
3378.67	0.03166
3388.32	0.031874
3397.96	0.032398
3407.6	0.032513
3417.24	0.031726
3426.89	0.033239
3436.53	0.034111
3446.17	0.032595
3455.81	0.03124
3465.45	0.03383
3475.1	0.032875
3484.74	0.031549
3494.38	0.031257
3504.02	0.031862
3513.67	0.031059
3523.31	0.031404
3532.95	0.033107
3542.59	0.031561
3552.24	0.032437
3561.88	0.031419
3571.52	0.031257
3581.16	0.030232
3590.8	0.032458
3600.45	0.032116
3610.09	0.031489
3619.73	0.031508
3629.37	0.033652
3639.02	0.031734
3648.66	0.033154
3658.3	0.033149
3667.94	0.03096
3677.59	0.030305
3687.23	0.030007
3696.87	0.030068
3706.51	0.030824
3716.16	0.027793
3725.8	0.030256
3735.44	0.031855
3745.08	0.030669
3754.72	0.02997
3764.37	0.028597
3774.01	0.030525
3783.65	0.030464
3793.29	0.030102
3802.94	0.029547
3812.58	0.031935
3822.22	0.03101
3831.86	0.028925
3841.51	0.030657
3851.15	0.031326
3860.79	0.029576
3870.43	0.029
3880.07	0.03137
3889.72	0.029422
3899.36	0.029892
3909	0.030692
3918.64	0.030298
3928.29	0.032916
3937.93	0.029469
3947.57	0.031094
3957.21	0.031376
3966.86	0.031361
3976.5	0.032312
3986.14	0.030612
3995.78	0.032534
