Measurement: Infrared, Infrared Data RAW
Mineral: Huntite
Rruff sample: R040126
Ideal chemistry: CaMg_3_(CO_3_)_4_
Locality: Crestmore Quarry, Riverside County, California, USA
Source: University of Arizona Mineral Museum
Description: White fine-grained massive
Measured chemistry: Ca_0.97_Mg_3.02_(CO_3_)_4_
x	intensity
399.193	0.204159
408.835	0.154738
418.477	0.120403
428.12	0.098608
437.762	0.079901
447.404	0.066294
457.047	0.051478
466.689	0.038741
476.331	0.02696
485.974	0.021429
495.616	0.017724
505.258	0.017172
514.901	0.015137
524.543	0.015195
534.185	0.014119
543.828	0.012946
553.47	0.013015
563.112	0.012384
572.755	0.011416
582.397	0.011941
592.039	0.00967
601.682	0.01008
611.324	0.010387
620.966	0.009577
630.609	0.009212
640.251	0.008711
649.893	0.009119
659.536	0.009321
669.178	0.0104
678.82	0.010241
688.463	0.011565
698.105	0.013875
707.747	0.012153
717.39	0.012094
727.032	0.017312
736.674	0.033415
746.317	0.039085
755.959	0.018597
765.601	0.013462
775.244	0.010689
784.886	0.009992
794.528	0.009821
804.171	0.00941
813.813	0.009586
823.455	0.010443
833.098	0.011634
842.74	0.019774
852.382	0.032457
862.025	0.301949
871.667	0.20488
881.309	0.035445
890.952	0.286278
900.594	0.015154
910.236	0.006514
919.879	0.006249
929.521	0.006401
939.163	0.005705
948.806	0.005821
958.448	0.005962
968.09	0.006426
977.733	0.006139
987.375	0.006211
997.017	0.006521
1006.66	0.006744
1016.3	0.007104
1025.94	0.007852
1035.59	0.008765
1045.23	0.009377
1054.87	0.009202
1064.51	0.00988
1074.16	0.010712
1083.8	0.011966
1093.44	0.013926
1103.08	0.018679
1112.72	0.044648
1122.37	0.016501
1132.01	0.013166
1141.65	0.013612
1151.3	0.013312
1160.94	0.01422
1170.58	0.01472
1180.22	0.014633
1189.86	0.015115
1199.51	0.015135
1209.15	0.015931
1218.79	0.016812
1228.43	0.0179
1238.08	0.0193
1247.72	0.020176
1257.36	0.022098
1267	0.023742
1276.64	0.025993
1286.29	0.02859
1295.93	0.031931
1305.57	0.036359
1315.21	0.042197
1324.86	0.050094
1334.5	0.060131
1344.14	0.074602
1353.78	0.097199
1363.43	0.132422
1373.07	0.178977
1382.71	0.253006
1392.35	0.360041
1401.99	0.493715
1411.64	0.632
1421.28	0.822767
1430.92	0.969129
1440.57	0.904358
1450.21	0.698979
1459.85	0.566448
1469.49	0.508274
1479.13	0.358914
1488.78	0.269731
1498.42	0.525016
1508.06	0.676856
1517.7	0.479391
1527.35	0.391898
1536.99	0.339734
1546.63	0.298126
1556.27	0.245073
1565.91	0.183725
1575.56	0.136547
1585.2	0.096359
1594.84	0.063141
1604.48	0.03547
1614.13	0.023901
1623.77	0.018174
1633.41	0.014385
1643.05	0.012088
1652.7	0.010404
1662.34	0.009083
1671.98	0.008484
1681.62	0.007801
1691.27	0.006796
1700.91	0.006386
1710.55	0.00566
1720.19	0.004679
1729.84	0.003915
1739.48	0.003652
1749.12	0.004125
1758.76	0.004033
1768.4	0.003393
1778.05	0.002455
1787.69	0.002652
1797.33	0.004233
1806.97	0.005035
1816.62	0.007734
1826.26	0.011055
1835.9	0.008681
1845.54	0.006999
1855.18	0.005206
1864.83	0.003029
1874.47	0.002303
1884.11	0.001082
1893.75	0.000818
1903.4	0.000441
1913.04	0.000472
1922.68	0.000142
1932.32	0.000359
1941.97	0.000192
1951.61	-0.00016
1961.25	0.001338
1970.89	-0.001129
1980.54	0.001777
1990.18	-0.001415
1999.82	-0.000497
2009.46	0.000307
2019.11	-0.000955
2028.75	0.001509
2038.39	0.00065
2048.03	0.002157
2057.67	-0.001373
2067.32	0.001278
2076.96	0.00088
2086.6	0.00136
2096.24	0.001219
2105.89	0.002562
2115.53	0.000264
2125.17	-0.000235
2134.81	-0.001318
2144.45	-4.2e-05
2154.1	-0.002126
2163.74	0.002863
2173.38	0.000571
2183.02	-0.000106
2192.67	0.001791
2202.31	-0.000109
2211.95	-2.4e-05
2221.59	0.00207
2231.24	-0.000369
2240.88	0.000392
2250.52	0.001007
2260.16	0.001625
2269.8	0.001073
2279.45	0.002089
2289.09	0.002193
2298.73	0.002129
2308.38	0.001563
2318.02	0.002548
2327.66	0.002978
2337.3	0.002817
2346.94	0.002027
2356.59	0.003043
2366.23	0.004004
2375.87	0.001739
2385.51	-0.000437
2395.16	0.00092
2404.8	0.00066
2414.44	0.000535
2424.08	0.000398
2433.72	0.000764
2443.37	0.00058
2453.01	1.6e-05
2462.65	0.000806
2472.29	0.000521
2481.94	0.00117
2491.58	0.000216
2501.22	0.000714
2510.86	0.001234
2520.51	0.003281
2530.15	0.007541
2539.79	0.010686
2549.43	0.009863
2559.07	0.008575
2568.72	0.008295
2578.36	0.009627
2588	0.008961
2597.64	0.006056
2607.29	0.004726
2616.93	0.004446
2626.57	0.004322
2636.21	0.004083
2645.86	0.003351
2655.5	0.003625
2665.14	0.002691
2674.78	0.002106
2684.43	0.002429
2694.07	0.001729
2703.71	0.002445
2713.35	0.001563
2722.99	0.001344
2732.64	0.000358
2742.28	-0.00081
2751.92	-0.00144
2761.56	-0.00193
2771.21	-0.001714
2780.85	-0.002736
2790.49	-0.003203
2800.13	-0.002873
2809.78	-0.003394
2819.42	-0.00406
2829.06	-0.00465
2838.7	-0.00371
2848.34	-0.003428
2857.99	-0.003859
2867.63	-0.003386
2877.27	-0.002399
2886.91	-0.001105
2896.56	-0.000815
2906.2	-0.000215
2915.84	0.000176
2925.48	-0.000241
2935.13	0.001171
2944.77	0.001615
2954.41	0.001772
2964.05	0.00222
2973.7	0.002916
2983.34	0.001943
2992.98	-0.000239
3002.62	-0.002612
3012.26	-0.002612
3021.91	-0.00233
3031.55	-0.001657
3041.19	-0.001124
3050.83	-0.000689
3060.48	-0.000473
3070.12	-0.00063
3079.76	-0.000457
3089.4	-0.000274
3099.05	4.7e-05
3108.69	0.00049
3118.33	0.001349
3127.97	0.002841
3137.61	0.000528
3147.26	0.002458
3156.9	0.003826
3166.54	0.003593
3176.18	0.004632
3185.83	0.005356
3195.47	0.006694
3205.11	0.005936
3214.75	0.006424
3224.4	0.006501
3234.04	0.00821
3243.68	0.007447
3253.32	0.007428
3262.97	0.007248
3272.61	0.007036
3282.25	0.007811
3291.89	0.007889
3301.53	0.008011
3311.18	0.008793
3320.82	0.008473
3330.46	0.007912
3340.1	0.008234
3349.75	0.00848
3359.39	0.008381
3369.03	0.007996
3378.67	0.009201
3388.32	0.008507
3397.96	0.006984
3407.6	0.009159
3417.24	0.007855
3426.89	0.00794
3436.53	0.006605
3446.17	0.007037
3455.81	0.007432
3465.45	0.007592
3475.1	0.006852
3484.74	0.006955
3494.38	0.005863
3504.02	0.007139
3513.67	0.006856
3523.31	0.006665
3532.95	0.004754
3542.59	0.005289
3552.24	0.006494
3561.88	0.006492
3571.52	0.003446
3581.16	0.003904
3590.8	0.004219
3600.45	0.004192
3610.09	0.004845
3619.73	0.003388
3629.37	0.002984
3639.02	0.004719
3648.66	0.001892
3658.3	0.003915
3667.94	0.004427
3677.59	0.004274
3687.23	0.002588
3696.87	0.005351
3706.51	0.003393
3716.16	0.004286
3725.8	0.004637
3735.44	0.00304
3745.08	0.002995
3754.72	0.003471
3764.37	0.002615
3774.01	0.002781
3783.65	0.002263
3793.29	0.005159
3802.94	0.004271
3812.58	0.004518
3822.22	0.005358
3831.86	0.005018
3841.51	0.005508
3851.15	0.005595
3860.79	0.005253
3870.43	0.003859
3880.07	0.006556
3889.72	0.004394
3899.36	0.003847
3909	0.00585
3918.64	0.004294
3928.29	0.005974
3937.93	0.003778
3947.57	0.004576
3957.21	0.005728
3966.86	0.005984
3976.5	0.006877
3986.14	0.004052
3995.78	0.005667
