Measurement: Infrared, Infrared Data RAW
Mineral: Pyrolusite
Rruff sample: R040153
Ideal chemistry: Mn^4+^O_2_
Locality: San Carlos mine, Mapimi, Durango, Mexico
Source: University of Arizona Mineral Museum
Description: Gray massive with small crystals in crevices
Measured chemistry: (Mn_0.97_Zn_0.02_Fe_0.01_)O_2_
x	intensity
399.193	0.450907
408.835	0.429513
418.477	0.452187
428.12	0.467333
437.762	0.497749
447.404	0.49107
457.047	0.504073
466.689	0.508498
476.331	0.523191
485.974	0.535287
495.616	0.553011
505.258	0.564432
514.901	0.5567
524.543	0.529992
534.185	0.510759
543.828	0.494167
553.47	0.483306
563.112	0.469249
572.755	0.457704
582.397	0.446713
592.039	0.436609
601.682	0.411216
611.324	0.388119
620.966	0.36898
630.609	0.356365
640.251	0.344868
649.893	0.334548
659.536	0.327737
669.178	0.321309
678.82	0.316277
688.463	0.310534
698.105	0.305873
707.747	0.300294
717.39	0.295525
727.032	0.290929
736.674	0.287882
746.317	0.283845
755.959	0.282422
765.601	0.284786
775.244	0.288606
784.886	0.293101
794.528	0.298517
804.171	0.306278
813.813	0.313902
823.455	0.321715
833.098	0.329127
842.74	0.336479
852.382	0.343191
862.025	0.350052
871.667	0.357644
881.309	0.364933
890.952	0.371066
900.594	0.376657
910.236	0.382651
919.879	0.387899
929.521	0.393505
939.163	0.398963
948.806	0.402254
958.448	0.406427
968.09	0.410909
977.733	0.415563
987.375	0.419219
997.017	0.423834
1006.66	0.428689
1016.3	0.43557
1025.94	0.441674
1035.59	0.447713
1045.23	0.454758
1054.87	0.46197
1064.51	0.470652
1074.16	0.479531
1083.8	0.489058
1093.44	0.492336
1103.08	0.49131
1112.72	0.488922
1122.37	0.486311
1132.01	0.486128
1141.65	0.490081
1151.3	0.492591
1160.94	0.488257
1170.58	0.481738
1180.22	0.475993
1189.86	0.47632
1199.51	0.479214
1209.15	0.483114
1218.79	0.487634
1228.43	0.49247
1238.08	0.498098
1247.72	0.503347
1257.36	0.509207
1267	0.514486
1276.64	0.519969
1286.29	0.52512
1295.93	0.529535
1305.57	0.533925
1315.21	0.537863
1324.86	0.541082
1334.5	0.545719
1344.14	0.55107
1353.78	0.55508
1363.43	0.56096
1373.07	0.566656
1382.71	0.570866
1392.35	0.576588
1401.99	0.580277
1411.64	0.583046
1421.28	0.583807
1430.92	0.583045
1440.57	0.583276
1450.21	0.583603
1459.85	0.585737
1469.49	0.588354
1479.13	0.591698
1488.78	0.597178
1498.42	0.602543
1508.06	0.608336
1517.7	0.614854
1527.35	0.619446
1536.99	0.623664
1546.63	0.626615
1556.27	0.627867
1565.91	0.628747
1575.56	0.630467
1585.2	0.631304
1594.84	0.63413
1604.48	0.635532
1614.13	0.637682
1623.77	0.639883
1633.41	0.641855
1643.05	0.643239
1652.7	0.64359
1662.34	0.644175
1671.98	0.645266
1681.62	0.646185
1691.27	0.648589
1700.91	0.65217
1710.55	0.656554
1720.19	0.661952
1729.84	0.664938
1739.48	0.667569
1749.12	0.669059
1758.76	0.672229
1768.4	0.674631
1778.05	0.677851
1787.69	0.68149
1797.33	0.684379
1806.97	0.687641
1816.62	0.68927
1826.26	0.69322
1835.9	0.696707
1845.54	0.699879
1855.18	0.702894
1864.83	0.705463
1874.47	0.707936
1884.11	0.711767
1893.75	0.712515
1903.4	0.715284
1913.04	0.717661
1922.68	0.718801
1932.32	0.720076
1941.97	0.721017
1951.61	0.71736
1961.25	0.717599
1970.89	0.712693
1980.54	0.7187
1990.18	0.72318
1999.82	0.72318
2009.46	0.717798
2019.11	0.720637
2028.75	0.718051
2038.39	0.723679
2048.03	0.729147
2057.67	0.736277
2067.32	0.738423
2076.96	0.737876
2086.6	0.738811
2096.24	0.73848
2105.89	0.741457
2115.53	0.741928
2125.17	0.739933
2134.81	0.737524
2144.45	0.730959
2154.1	0.730142
2163.74	0.737951
2173.38	0.743346
2183.02	0.750318
2192.67	0.753033
2202.31	0.759625
2211.95	0.762131
2221.59	0.766538
2231.24	0.772756
2240.88	0.774765
2250.52	0.778169
2260.16	0.78252
2269.8	0.786861
2279.45	0.792997
2289.09	0.797399
2298.73	0.799812
2308.38	0.80285
2318.02	0.80721
2327.66	0.810426
2337.3	0.811938
2346.94	0.815494
2356.59	0.817823
2366.23	0.819767
2375.87	0.822985
2385.51	0.826779
2395.16	0.828447
2404.8	0.830854
2414.44	0.832728
2424.08	0.83732
2433.72	0.839495
2443.37	0.843678
2453.01	0.846931
2462.65	0.849224
2472.29	0.851693
2481.94	0.856216
2491.58	0.858776
2501.22	0.861797
2510.86	0.866189
2520.51	0.868507
2530.15	0.872183
2539.79	0.874681
2549.43	0.877902
2559.07	0.87919
2568.72	0.881003
2578.36	0.883474
2588	0.88484
2597.64	0.888816
2607.29	0.889871
2616.93	0.893306
2626.57	0.895506
2636.21	0.897215
2645.86	0.900229
2655.5	0.901681
2665.14	0.903011
2674.78	0.904811
2684.43	0.906666
2694.07	0.907718
2703.71	0.909502
2713.35	0.911105
2722.99	0.9138
2732.64	0.9153
2742.28	0.916547
2751.92	0.918023
2761.56	0.920818
2771.21	0.922811
2780.85	0.923984
2790.49	0.925411
2800.13	0.927956
2809.78	0.931498
2819.42	0.933781
2829.06	0.936892
2838.7	0.938883
2848.34	0.943097
2857.99	0.945721
2867.63	0.944423
2877.27	0.94809
2886.91	0.949178
2896.56	0.952164
2906.2	0.956185
2915.84	0.960162
2925.48	0.961335
2935.13	0.958933
2944.77	0.95971
2954.41	0.96245
2964.05	0.961178
2973.7	0.960312
2983.34	0.960502
2992.98	0.963256
3002.62	0.964787
3012.26	0.967338
3021.91	0.969497
3031.55	0.971814
3041.19	0.9744
3050.83	0.977752
3060.48	0.979671
3070.12	0.979655
3079.76	0.98335
3089.4	0.984698
3099.05	0.98675
3108.69	0.988743
3118.33	0.990957
3127.97	0.992315
3137.61	0.994957
3147.26	0.997245
3156.9	0.999716
3166.54	1.00201
3176.18	1.00254
3185.83	1.00451
3195.47	1.00692
3205.11	1.01019
3214.75	1.0111
3224.4	1.01184
3234.04	1.01487
3243.68	1.01337
3253.32	1.01316
3262.97	1.01727
3272.61	1.01566
3282.25	1.02029
3291.89	1.01811
3301.53	1.01956
3311.18	1.01972
3320.82	1.02082
3330.46	1.0199
3340.1	1.02048
3349.75	1.022
3359.39	1.02275
3369.03	1.02208
3378.67	1.02247
3388.32	1.02404
3397.96	1.02087
3407.6	1.02006
3417.24	1.0219
3426.89	1.01786
3436.53	1.016
3446.17	1.01433
3455.81	1.01387
3465.45	1.01351
3475.1	1.01447
3484.74	1.01252
3494.38	1.01269
3504.02	1.01363
3513.67	1.01497
3523.31	1.01387
3532.95	1.01367
3542.59	1.01436
3552.24	1.01282
3561.88	1.01405
3571.52	1.01512
3581.16	1.0167
3590.8	1.01681
3600.45	1.01616
3610.09	1.02391
3619.73	1.02503
3629.37	1.02584
3639.02	1.0301
3648.66	1.03225
3658.3	1.03566
3667.94	1.03909
3677.59	1.04279
3687.23	1.04574
3696.87	1.05055
3706.51	1.05303
3716.16	1.0553
3725.8	1.05956
3735.44	1.05949
3745.08	1.06332
3754.72	1.06853
3764.37	1.06816
3774.01	1.0699
3783.65	1.07408
3793.29	1.07644
3802.94	1.07896
3812.58	1.08639
3822.22	1.08704
3831.86	1.09003
3841.51	1.08966
3851.15	1.09339
3860.79	1.09495
3870.43	1.09841
3880.07	1.10003
3889.72	1.1029
3899.36	1.10599
3909	1.10737
3918.64	1.11102
3928.29	1.1108
3937.93	1.11798
3947.57	1.11848
3957.21	1.12461
3966.86	1.12438
3976.5	1.12496
3986.14	1.12792
3995.78	1.12843
