Measurement: Infrared, Infrared Data RAW
Mineral: Sodalite
Rruff sample: R040141
Ideal chemistry: Na_4_Si_3_Al_3_O_12_Cl
Locality: Princess Sodalite mine, Bancroft, Ontario, Canada
Source: University of Arizona Mineral Museum
Description: Blue grains in a coarsely crystalline rock
Measured chemistry: Na_7.86_Al_6.00_Si_6.03_O_24_Cl_2.02_
x	intensity
399.193	0.209489
408.835	0.245671
418.477	0.284146
428.12	0.339007
437.762	0.243648
447.404	0.113129
457.047	0.187108
466.689	0.196242
476.331	0.088937
485.974	0.034176
495.616	0.018731
505.258	0.01505
514.901	0.014168
524.543	0.013886
534.185	0.014957
543.828	0.015232
553.47	0.015372
563.112	0.016965
572.755	0.01849
582.397	0.020339
592.039	0.021958
601.682	0.023366
611.324	0.025575
620.966	0.027592
630.609	0.031655
640.251	0.039952
649.893	0.061794
659.536	0.142952
669.178	0.201288
678.82	0.057545
688.463	0.047711
698.105	0.067632
707.747	0.138563
717.39	0.119928
727.032	0.149695
736.674	0.221947
746.317	0.055885
755.959	0.028355
765.601	0.022074
775.244	0.020634
784.886	0.020571
794.528	0.020459
804.171	0.020277
813.813	0.021349
823.455	0.023352
833.098	0.02626
842.74	0.030463
852.382	0.036947
862.025	0.046223
871.667	0.059432
881.309	0.077107
890.952	0.099641
900.594	0.133239
910.236	0.178478
919.879	0.242029
929.521	0.317965
939.163	0.398274
948.806	0.464016
958.448	0.508878
968.09	0.485056
977.733	0.423336
987.375	0.330771
997.017	0.251723
1006.66	0.197552
1016.3	0.158396
1025.94	0.127824
1035.59	0.101419
1045.23	0.075167
1054.87	0.051154
1064.51	0.03593
1074.16	0.030787
1083.8	0.027457
1093.44	0.025167
1103.08	0.023051
1112.72	0.020398
1122.37	0.018461
1132.01	0.017162
1141.65	0.015755
1151.3	0.013482
1160.94	0.011812
1170.58	0.00991
1180.22	0.008606
1189.86	0.007089
1199.51	0.005707
1209.15	0.005016
1218.79	0.004249
1228.43	0.004076
1238.08	0.004086
1247.72	0.003814
1257.36	0.003563
1267	0.003213
1276.64	0.003304
1286.29	0.003525
1295.93	0.003303
1305.57	0.003332
1315.21	0.00337
1324.86	0.003644
1334.5	0.004209
1344.14	0.003543
1353.78	0.003383
1363.43	0.003788
1373.07	0.003653
1382.71	0.004184
1392.35	0.004559
1401.99	0.00501
1411.64	0.005744
1421.28	0.006134
1430.92	0.006436
1440.57	0.007178
1450.21	0.007448
1459.85	0.007112
1469.49	0.006112
1479.13	0.005252
1488.78	0.005164
1498.42	0.004974
1508.06	0.005342
1517.7	0.004823
1527.35	0.004513
1536.99	0.0047
1546.63	0.005086
1556.27	0.005428
1565.91	0.00562
1575.56	0.00587
1585.2	0.005595
1594.84	0.005672
1604.48	0.005988
1614.13	0.005882
1623.77	0.006123
1633.41	0.00684
1643.05	0.006787
1652.7	0.00781
1662.34	0.006489
1671.98	0.005979
1681.62	0.005912
1691.27	0.005572
1700.91	0.006398
1710.55	0.005314
1720.19	0.004405
1729.84	0.003898
1739.48	0.004321
1749.12	0.003904
1758.76	0.003382
1768.4	0.003067
1778.05	0.002984
1787.69	0.002436
1797.33	0.002354
1806.97	0.002173
1816.62	0.001596
1826.26	0.001477
1835.9	0.001619
1845.54	0.001407
1855.18	0.000862
1864.83	0.000694
1874.47	0.00034
1884.11	0.00024
1893.75	-8.8e-05
1903.4	-0.000212
1913.04	-0.001352
1922.68	-0.001635
1932.32	-0.001133
1941.97	-0.003406
1951.61	-0.00292
1961.25	-0.005114
1970.89	-0.007592
1980.54	-0.005543
1990.18	-0.00262
1999.82	-0.004239
2009.46	-0.004932
2019.11	-0.005182
2028.75	-0.00639
2038.39	-0.002274
2048.03	-0.001413
2057.67	-4.5e-05
2067.32	-0.000289
2076.96	0.000901
2086.6	0.00222
2096.24	0.002108
2105.89	0.001843
2115.53	0.003317
2125.17	0.00233
2134.81	-0.000532
2144.45	-0.000574
2154.1	-0.000561
2163.74	0.004992
2173.38	0.000735
2183.02	0.003209
2192.67	0.003884
2202.31	0.003584
2211.95	0.003979
2221.59	0.003848
2231.24	0.005974
2240.88	0.003805
2250.52	0.002196
2260.16	0.003721
2269.8	0.005208
2279.45	0.004242
2289.09	0.004262
2298.73	0.005707
2308.38	0.006032
2318.02	0.006495
2327.66	0.007553
2337.3	0.007325
2346.94	0.005946
2356.59	0.007468
2366.23	0.007241
2375.87	0.005218
2385.51	0.005892
2395.16	0.004734
2404.8	0.004635
2414.44	0.004921
2424.08	0.005725
2433.72	0.005142
2443.37	0.005866
2453.01	0.006247
2462.65	0.005672
2472.29	0.00593
2481.94	0.006191
2491.58	0.006416
2501.22	0.005924
2510.86	0.007213
2520.51	0.006088
2530.15	0.005316
2539.79	0.006325
2549.43	0.006501
2559.07	0.006108
2568.72	0.007183
2578.36	0.006223
2588	0.007261
2597.64	0.006778
2607.29	0.006825
2616.93	0.006638
2626.57	0.007681
2636.21	0.007646
2645.86	0.007268
2655.5	0.00747
2665.14	0.006734
2674.78	0.006627
2684.43	0.007137
2694.07	0.006761
2703.71	0.007078
2713.35	0.007747
2722.99	0.007165
2732.64	0.007326
2742.28	0.00801
2751.92	0.008089
2761.56	0.008402
2771.21	0.009367
2780.85	0.00834
2790.49	0.008413
2800.13	0.008844
2809.78	0.008212
2819.42	0.008904
2829.06	0.008808
2838.7	0.008824
2848.34	0.009094
2857.99	0.011081
2867.63	0.010105
2877.27	0.009652
2886.91	0.010353
2896.56	0.009837
2906.2	0.010165
2915.84	0.011593
2925.48	0.011664
2935.13	0.012381
2944.77	0.010975
2954.41	0.011968
2964.05	0.01054
2973.7	0.010825
2983.34	0.011461
2992.98	0.011113
3002.62	0.010801
3012.26	0.011259
3021.91	0.010893
3031.55	0.01158
3041.19	0.011637
3050.83	0.012141
3060.48	0.012152
3070.12	0.012419
3079.76	0.013101
3089.4	0.012878
3099.05	0.012943
3108.69	0.014038
3118.33	0.013054
3127.97	0.013544
3137.61	0.014142
3147.26	0.015321
3156.9	0.014845
3166.54	0.01587
3176.18	0.015386
3185.83	0.015342
3195.47	0.01624
3205.11	0.017265
3214.75	0.015476
3224.4	0.015599
3234.04	0.016337
3243.68	0.017766
3253.32	0.017175
3262.97	0.017578
3272.61	0.018086
3282.25	0.017547
3291.89	0.01811
3301.53	0.018182
3311.18	0.01869
3320.82	0.018574
3330.46	0.018596
3340.1	0.019698
3349.75	0.018427
3359.39	0.019207
3369.03	0.018568
3378.67	0.019287
3388.32	0.019866
3397.96	0.020113
3407.6	0.019791
3417.24	0.020142
3426.89	0.019708
3436.53	0.019699
3446.17	0.020492
3455.81	0.020252
3465.45	0.019935
3475.1	0.018848
3484.74	0.020326
3494.38	0.020436
3504.02	0.020676
3513.67	0.019792
3523.31	0.019746
3532.95	0.019382
3542.59	0.019858
3552.24	0.01904
3561.88	0.018928
3571.52	0.020013
3581.16	0.01877
3590.8	0.018295
3600.45	0.018818
3610.09	0.017435
3619.73	0.01556
3629.37	0.016323
3639.02	0.015325
3648.66	0.014445
3658.3	0.014504
3667.94	0.013048
3677.59	0.015251
3687.23	0.013239
3696.87	0.013538
3706.51	0.01257
3716.16	0.012937
3725.8	0.014454
3735.44	0.014379
3745.08	0.012185
3754.72	0.01503
3764.37	0.014168
3774.01	0.014942
3783.65	0.015154
3793.29	0.012653
3802.94	0.014433
3812.58	0.014304
3822.22	0.016654
3831.86	0.013797
3841.51	0.017396
3851.15	0.017429
3860.79	0.014467
3870.43	0.014738
3880.07	0.016861
3889.72	0.013621
3899.36	0.015357
3909	0.015852
3918.64	0.01571
3928.29	0.01431
3937.93	0.015749
3947.57	0.016742
3957.21	0.015128
3966.86	0.01762
3976.5	0.017196
3986.14	0.01565
3995.78	0.016107
