Measurement: Infrared, Infrared Data RAW
Mineral: Ammoniomagnesiovoltaite
Rruff sample: R130079
Ideal chemistry: (N^3-^H_4_)_2_Mg_5_Fe^3+^_3_Al(S^6+^O_4_)_12_18H_2_O
Locality: Pécs-Vasas, Mecsek Mountains, South Hungary
Source: Sándor Szakall
Description: Translucent, pale yellow to yellowish brown crusts. Closely associated with tschermigite, sabieite, kieserite, pickeringite, and hexahydrite. Data from Szakall et al (2012)
Measured chemistry: [(NH_4_)_2.18_K_0.02_]_Σ=2.20_(Mg_3.19_Fe^2+^_1.51_Mn_0.30_)_Σ=5.00_(Fe^3+^_2.81_Al_1.19_)_Σ=4.00_S_10.87_O_44.70_18H_2_O
x	intensity
399.212	1.67789
408.855	1.71655
418.498	1.69308
428.141	1.68217
437.784	1.62728
447.426	1.5863
457.069	1.58062
466.712	1.5209
476.355	1.47477
485.998	1.53526
495.64	1.56361
505.283	1.56653
514.926	1.53338
524.569	1.48226
534.212	1.43262
543.854	1.41316
553.497	1.40527
563.14	1.40116
572.783	1.39752
582.426	1.34108
592.068	1.25091
601.711	1.32203
611.354	1.43209
620.997	1.42722
630.64	1.41958
640.283	1.48674
649.925	1.56178
659.568	1.56352
669.211	1.64549
678.854	1.75968
688.497	1.82036
698.139	1.85578
707.782	1.88822
717.425	1.8981
727.068	1.91353
736.711	1.93787
746.353	1.9385
755.996	1.94457
765.639	1.98316
775.282	1.9799
784.925	1.99734
794.568	1.97604
804.21	1.96723
813.853	1.96132
823.496	1.92704
833.139	1.88784
842.782	1.83729
852.424	1.7926
862.067	1.73351
871.71	1.67922
881.353	1.65681
890.996	1.63228
900.638	1.59203
910.281	1.53928
919.924	1.48513
929.567	1.41824
939.21	1.34905
948.852	1.26553
958.495	1.15059
968.138	0.99462
977.781	0.81398
987.424	0.63749
997.067	0.54434
1006.71	0.48779
1016.35	0.46774
1025.99	0.48462
1035.64	0.40481
1045.28	0.25124
1054.92	0.11712
1064.57	0.05982
1074.21	0.07341
1083.85	0.11979
1093.49	0.15714
1103.14	0.10918
1112.78	0.03113
1122.42	0
1132.07	0.06085
1141.71	0.13272
1151.35	0.16731
1160.99	0.18529
1170.64	0.22472
1180.28	0.30254
1189.92	0.41364
1199.57	0.49962
1209.21	0.58885
1218.85	0.66823
1228.49	0.75564
1238.14	0.84796
1247.78	0.94747
1257.42	1.03873
1267.07	1.13069
1276.71	1.21318
1286.35	1.27585
1295.99	1.34124
1305.64	1.38005
1315.28	1.41164
1324.92	1.4442
1334.56	1.47494
1344.21	1.5025
1353.85	1.52613
1363.49	1.53449
1373.14	1.54151
1382.78	1.53011
1392.42	1.54088
1402.06	1.493
1411.71	1.43432
1421.35	1.31235
1430.99	1.26208
1440.64	1.28058
1450.28	1.32266
1459.92	1.3585
1469.56	1.4432
1479.21	1.53988
1488.85	1.5906
1498.49	1.6218
1508.14	1.61469
1517.78	1.61511
1527.42	1.66083
1537.06	1.67537
1546.71	1.67947
1556.35	1.68984
1565.99	1.68487
1575.64	1.67449
1585.28	1.65212
1594.92	1.60465
1604.56	1.53323
1614.21	1.41979
1623.85	1.30344
1633.49	1.27803
1643.13	1.27169
1652.78	1.31013
1662.42	1.36499
1672.06	1.42461
1681.71	1.47268
1691.35	1.52293
1700.99	1.58265
1710.63	1.61765
1720.28	1.65863
1729.92	1.68752
1739.56	1.71316
1749.21	1.76115
1758.85	1.81479
1768.49	1.8441
1778.13	1.86502
1787.78	1.88066
1797.42	1.89578
1807.06	1.90771
1816.71	1.92016
1826.35	1.93046
1835.99	1.94377
1845.63	1.95186
1855.28	1.95913
1864.92	1.96606
1874.56	1.972
1884.21	1.97577
1893.85	1.98108
1903.49	1.98459
1913.13	1.99012
1922.78	1.99406
1932.42	1.99557
1942.06	1.9986
1951.7	1.99684
1961.35	1.99961
1970.99	1.99859
1980.63	1.99714
1990.28	1.99905
1999.92	1.9951
2009.56	1.99701
2019.2	1.99471
2028.85	1.99256
2038.49	1.99326
2048.13	1.99541
2057.78	1.99468
2067.42	1.99208
2077.06	1.98848
2086.7	1.98982
2096.35	1.99092
2105.99	1.99348
2115.63	1.99251
2125.28	1.99023
2134.92	1.98972
2144.56	1.9885
2154.2	1.98749
2163.85	1.98836
2173.49	1.98758
2183.13	1.98666
2192.77	1.98417
2202.42	1.98357
2212.06	1.98158
2221.7	1.97818
2231.35	1.97449
2240.99	1.97293
2250.63	1.97083
2260.27	1.96681
2269.92	1.96132
2279.56	1.95811
2289.2	1.95239
2298.85	1.94626
2308.49	1.93697
2318.13	1.92258
2327.77	1.90835
2337.42	1.8959
2347.06	1.89739
2356.7	1.87422
2366.35	1.87222
2375.99	1.88342
2385.63	1.89562
2395.27	1.88942
2404.92	1.88235
2414.56	1.87131
2424.2	1.85923
2433.85	1.84802
2443.49	1.83716
2453.13	1.82524
2462.77	1.81262
2472.42	1.80356
2482.06	1.79633
2491.7	1.79469
2501.34	1.79192
2510.99	1.79319
2520.63	1.79485
2530.27	1.79771
2539.92	1.79968
2549.56	1.80395
2559.2	1.80273
2568.84	1.80186
2578.49	1.79926
2588.13	1.79622
2597.77	1.78788
2607.42	1.78094
2617.06	1.77254
2626.7	1.7626
2636.34	1.75184
2645.99	1.74253
2655.63	1.73072
2665.27	1.71879
2674.92	1.70284
2684.56	1.69089
2694.2	1.67517
2703.84	1.65835
2713.49	1.64157
2723.13	1.62452
2732.77	1.60773
2742.42	1.58663
2752.06	1.56854
2761.7	1.54795
2771.34	1.5263
2780.99	1.50391
2790.63	1.47878
2800.27	1.45803
2809.91	1.4287
2819.56	1.40076
2829.2	1.36435
2838.84	1.30992
2848.49	1.18455
2858.13	1.15596
2867.77	1.19511
2877.41	1.19482
2887.06	1.16744
2896.7	1.11681
2906.34	1.05314
2915.99	0.93249
2925.63	0.8462
2935.27	0.93377
2944.91	1.00075
2954.56	0.98505
2964.2	0.99569
2973.84	1.03193
2983.49	1.03666
2993.13	1.0308
3002.77	1.01452
3012.41	1.00329
3022.06	0.98947
3031.7	0.97352
3041.34	0.95823
3050.99	0.93794
3060.63	0.92178
3070.27	0.9034
3079.91	0.88551
3089.56	0.87222
3099.2	0.86347
3108.84	0.85503
3118.48	0.8445
3128.13	0.83142
3137.77	0.82096
3147.41	0.80414
3157.06	0.79231
3166.7	0.77821
3176.34	0.76119
3185.98	0.74154
3195.63	0.72263
3205.27	0.70278
3214.91	0.68535
3224.56	0.67274
3234.2	0.65988
3243.84	0.64492
3253.48	0.63213
3263.13	0.62508
3272.77	0.61542
3282.41	0.60929
3292.06	0.60144
3301.7	0.59
3311.34	0.57003
3320.98	0.54572
3330.63	0.52875
3340.27	0.51492
3349.91	0.49059
3359.56	0.45892
3369.2	0.42383
3378.84	0.38935
3388.48	0.36806
3398.13	0.35081
3407.77	0.33969
3417.41	0.33392
3427.05	0.33702
3436.7	0.34016
3446.34	0.35051
3455.98	0.36747
3465.63	0.40104
3475.27	0.44895
3484.91	0.4981
3494.55	0.53665
3504.2	0.5688
3513.84	0.60693
3523.48	0.66444
3533.13	0.72335
3542.77	0.77314
3552.41	0.82104
3562.05	0.8668
3571.7	0.91746
3581.34	0.97517
3590.98	1.04723
3600.63	1.11573
3610.27	1.19926
3619.91	1.268
3629.55	1.33915
3639.2	1.40786
3648.84	1.46637
3658.48	1.50942
3668.12	1.56234
3677.77	1.59399
3687.41	1.64538
3697.05	1.68428
3706.7	1.70796
3716.34	1.73714
3725.98	1.74955
3735.62	1.77231
3745.27	1.79214
3754.91	1.79957
3764.55	1.81483
3774.2	1.8213
3783.84	1.83841
3793.48	1.85205
3803.12	1.85644
3812.77	1.87577
3822.41	1.87416
3832.05	1.88768
3841.7	1.88894
3851.34	1.90853
3860.98	1.91231
3870.62	1.90951
3880.27	1.92061
3889.91	1.93172
3899.55	1.94314
3909.2	1.93839
3918.84	1.94634
3928.48	1.9593
3938.12	1.95732
3947.77	1.96712
3957.41	1.97474
3967.05	1.98486
3976.69	1.98268
3986.34	1.98874
3995.98	1.99508
