Measurement: Infrared, Infrared Data RAW
Mineral: Calcite
Rruff sample: R040170
Ideal chemistry: CaCO_3_
Locality: Peramea, Lerida Province, Catalonia, Spain
Source: University of Arizona Mineral Museum
Description: Pink fragment
Measured chemistry: (Ca_0.99_Mg_0.01_)CO_3_; trace amounts of Co
x	intensity
399.193	0.029939
408.835	0.023573
418.477	0.02333
428.12	0.022504
437.762	0.022452
447.404	0.023308
457.047	0.021552
466.689	0.022259
476.331	0.020279
485.974	0.017202
495.616	0.015228
505.258	0.014937
514.901	0.014114
524.543	0.013193
534.185	0.013654
543.828	0.012627
553.47	0.011416
563.112	0.010854
572.755	0.011794
582.397	0.011746
592.039	0.012334
601.682	0.013617
611.324	0.016615
620.966	0.016639
630.609	0.01671
640.251	0.014553
649.893	0.014547
659.536	0.016635
669.178	0.021666
678.82	0.01792
688.463	0.016278
698.105	0.020491
707.747	0.044532
717.39	0.038124
727.032	0.013884
736.674	0.011948
746.317	0.011568
755.959	0.011621
765.601	0.012202
775.244	0.012934
784.886	0.013287
794.528	0.013771
804.171	0.014314
813.813	0.015169
823.455	0.016196
833.098	0.018348
842.74	0.024059
852.382	0.032265
862.025	0.082219
871.667	0.33293
881.309	0.147533
890.952	0.017082
900.594	0.014954
910.236	0.015096
919.879	0.015992
929.521	0.017186
939.163	0.018431
948.806	0.019868
958.448	0.022111
968.09	0.023971
977.733	0.026954
987.375	0.030575
997.017	0.034632
1006.66	0.038932
1016.3	0.042317
1025.94	0.037959
1035.59	0.034371
1045.23	0.033245
1054.87	0.031707
1064.51	0.032535
1074.16	0.035955
1083.8	0.041856
1093.44	0.042454
1103.08	0.044347
1112.72	0.048448
1122.37	0.056847
1132.01	0.068906
1141.65	0.075428
1151.3	0.072493
1160.94	0.074135
1170.58	0.068688
1180.22	0.064034
1189.86	0.056717
1199.51	0.052122
1209.15	0.051935
1218.79	0.054661
1228.43	0.058855
1238.08	0.06454
1247.72	0.070462
1257.36	0.078632
1267	0.088161
1276.64	0.099385
1286.29	0.112531
1295.93	0.128405
1305.57	0.14867
1315.21	0.172576
1324.86	0.201108
1334.5	0.237624
1344.14	0.283883
1353.78	0.343
1363.43	0.419247
1373.07	0.50997
1382.71	0.611865
1392.35	0.700057
1401.99	0.711326
1411.64	0.654605
1421.28	0.572578
1430.92	0.508526
1440.57	0.457486
1450.21	0.410557
1459.85	0.361159
1469.49	0.316215
1479.13	0.274788
1488.78	0.236378
1498.42	0.200251
1508.06	0.166505
1517.7	0.134446
1527.35	0.10369
1536.99	0.073843
1546.63	0.044706
1556.27	0.026555
1565.91	0.020186
1575.56	0.016845
1585.2	0.015688
1594.84	0.013427
1604.48	0.01125
1614.13	0.009872
1623.77	0.009324
1633.41	0.008794
1643.05	0.008303
1652.7	0.007755
1662.34	0.007161
1671.98	0.007223
1681.62	0.006526
1691.27	0.005982
1700.91	0.00553
1710.55	0.005472
1720.19	0.005142
1729.84	0.005014
1739.48	0.004553
1749.12	0.003801
1758.76	0.004232
1768.4	0.005366
1778.05	0.007046
1787.69	0.012475
1797.33	0.018668
1806.97	0.007745
1816.62	0.004476
1826.26	0.003878
1835.9	0.003662
1845.54	0.003489
1855.18	0.00415
1864.83	0.004111
1874.47	0.003673
1884.11	0.003866
1893.75	0.004336
1903.4	0.003847
1913.04	0.002896
1922.68	0.003812
1932.32	0.003147
1941.97	0.003698
1951.61	0.004494
1961.25	0.002757
1970.89	0.00514
1980.54	0.005822
1990.18	0.005355
1999.82	0.003299
2009.46	0.004754
2019.11	0.002821
2028.75	0.003648
2038.39	0.004082
2048.03	0.005236
2057.67	0.005401
2067.32	0.005995
2076.96	0.005542
2086.6	0.006068
2096.24	0.006231
2105.89	0.006238
2115.53	0.007278
2125.17	0.005293
2134.81	0.005255
2144.45	0.005632
2154.1	0.003573
2163.74	0.005
2173.38	0.003268
2183.02	0.008363
2192.67	0.005266
2202.31	0.006404
2211.95	0.007456
2221.59	0.005313
2231.24	0.006329
2240.88	0.006049
2250.52	0.006187
2260.16	0.007632
2269.8	0.007139
2279.45	0.007312
2289.09	0.008753
2298.73	0.007838
2308.38	0.00928
2318.02	0.009186
2327.66	0.008763
2337.3	0.008538
2346.94	0.008749
2356.59	0.009572
2366.23	0.008405
2375.87	0.008359
2385.51	0.007955
2395.16	0.008134
2404.8	0.008372
2414.44	0.007585
2424.08	0.008214
2433.72	0.008739
2443.37	0.009448
2453.01	0.008664
2462.65	0.009734
2472.29	0.010233
2481.94	0.012037
2491.58	0.013145
2501.22	0.017454
2510.86	0.019258
2520.51	0.019526
2530.15	0.015111
2539.79	0.013149
2549.43	0.011479
2559.07	0.011819
2568.72	0.01223
2578.36	0.010762
2588	0.010745
2597.64	0.011254
2607.29	0.010863
2616.93	0.01067
2626.57	0.009341
2636.21	0.009519
2645.86	0.009861
2655.5	0.009554
2665.14	0.009124
2674.78	0.008769
2684.43	0.008791
2694.07	0.008292
2703.71	0.008491
2713.35	0.007895
2722.99	0.007961
2732.64	0.008106
2742.28	0.008057
2751.92	0.007912
2761.56	0.007336
2771.21	0.0075
2780.85	0.007309
2790.49	0.008078
2800.13	0.007648
2809.78	0.008287
2819.42	0.008357
2829.06	0.009154
2838.7	0.01069
2848.34	0.010452
2857.99	0.012744
2867.63	0.013178
2877.27	0.013419
2886.91	0.012616
2896.56	0.012438
2906.2	0.012935
2915.84	0.012842
2925.48	0.012981
2935.13	0.013311
2944.77	0.013523
2954.41	0.013574
2964.05	0.014155
2973.7	0.014022
2983.34	0.014871
2992.98	0.013165
3002.62	0.013822
3012.26	0.013494
3021.91	0.013943
3031.55	0.014037
3041.19	0.014733
3050.83	0.01556
3060.48	0.016742
3070.12	0.016262
3079.76	0.017912
3089.4	0.017946
3099.05	0.018063
3108.69	0.018827
3118.33	0.018766
3127.97	0.020253
3137.61	0.019497
3147.26	0.020245
3156.9	0.021274
3166.54	0.019629
3176.18	0.021903
3185.83	0.021038
3195.47	0.021995
3205.11	0.022718
3214.75	0.022364
3224.4	0.021538
3234.04	0.022971
3243.68	0.02263
3253.32	0.022941
3262.97	0.022241
3272.61	0.024526
3282.25	0.022489
3291.89	0.023055
3301.53	0.023697
3311.18	0.023526
3320.82	0.022555
3330.46	0.02335
3340.1	0.02291
3349.75	0.022538
3359.39	0.024393
3369.03	0.023779
3378.67	0.02467
3388.32	0.024685
3397.96	0.023391
3407.6	0.024848
3417.24	0.023955
3426.89	0.023681
3436.53	0.024351
3446.17	0.023292
3455.81	0.022166
3465.45	0.023836
3475.1	0.023163
3484.74	0.022612
3494.38	0.022731
3504.02	0.023696
3513.67	0.022465
3523.31	0.023851
3532.95	0.02206
3542.59	0.021481
3552.24	0.020282
3561.88	0.022914
3571.52	0.02247
3581.16	0.020413
3590.8	0.020357
3600.45	0.020158
3610.09	0.019922
3619.73	0.021284
3629.37	0.020207
3639.02	0.019098
3648.66	0.01965
3658.3	0.019736
3667.94	0.020702
3677.59	0.028002
3687.23	0.01922
3696.87	0.019283
3706.51	0.020625
3716.16	0.019591
3725.8	0.020383
3735.44	0.020756
3745.08	0.020648
3754.72	0.020151
3764.37	0.020447
3774.01	0.021654
3783.65	0.02126
3793.29	0.020958
3802.94	0.02137
3812.58	0.022189
3822.22	0.021466
3831.86	0.021258
3841.51	0.019999
3851.15	0.019969
3860.79	0.022082
3870.43	0.019666
3880.07	0.022884
3889.72	0.022794
3899.36	0.022363
3909	0.023313
3918.64	0.020181
3928.29	0.021539
3937.93	0.021379
3947.57	0.021019
3957.21	0.023095
3966.86	0.020803
3976.5	0.019738
3986.14	0.022809
3995.78	0.023124
