Measurement: Infrared, Infrared Data RAW
Mineral: Chukhrovite-(Ca)
Rruff sample: R130040
Ideal chemistry: Ca_3_Ca_1.5_Al_2_(S^6+^O_4_)F_13_12H_2_O
Locality: Val Cavallizza Pb–Zn–Ag mine, Cuasso al Monte, Varese province, Italy
Source: Frederic Hatert
Description: Crystals translucent to transparent, colourless to white,with a white streak and a vitreous lustre. Associated with marcasite, gypsum, and hydrated Fe oxides. Data from Vignola et al (2012)
Measured chemistry: (Ca_4.33_Na_0.11_Fe_0.03_)_Σ=4.47_Al_2.10_(S_0.90_O_3.72_)F_13.10_·5.98H_2_O
x	intensity
3998	1.88291
3986.99	1.89472
3975.97	1.91174
3964.96	1.92536
3953.95	1.93066
3942.93	1.93864
3931.92	1.9535
3920.91	1.96445
3909.9	1.97559
3898.88	1.98034
3887.87	1.98702
3876.86	1.9937
3865.84	1.99977
3854.83	2
3843.82	1.98148
3832.8	1.98769
3821.79	1.96889
3810.78	1.95532
3799.77	1.94455
3788.75	1.91197
3777.74	1.88218
3766.73	1.8341
3755.71	1.77724
3744.7	1.71717
3733.69	1.6468
3722.67	1.54184
3711.66	1.39132
3700.65	1.27241
3689.64	1.1535
3678.62	0.89675
3667.61	0.69533
3656.6	0.56681
3645.58	0.51811
3634.57	0.51192
3623.56	0.50573
3612.54	0.49177
3601.53	0.47249
3590.52	0.46005
3579.5	0.43719
3568.49	0.41433
3557.48	0.38417
3546.47	0.36009
3535.45	0.33971
3524.44	0.33292
3513.43	0.32978
3502.41	0.32663
3491.4	0.32544
3480.39	0.32374
3469.37	0.32291
3458.36	0.3214
3447.35	0.31989
3436.34	0.31069
3425.32	0.3077
3414.31	0.29728
3403.3	0.29052
3392.28	0.29151
3381.27	0.29249
3370.26	0.28837
3359.24	0.29478
3348.23	0.29292
3337.22	0.29664
3326.21	0.30036
3315.19	0.30094
3304.18	0.29815
3293.17	0.30638
3282.15	0.3033
3271.14	0.30021
3260.13	0.30741
3249.11	0.30565
3238.1	0.3067
3227.09	0.31219
3216.07	0.31635
3205.06	0.32051
3194.05	0.32856
3183.04	0.33975
3172.02	0.35498
3161.01	0.36244
3150	0.3699
3138.98	0.3984
3127.97	0.42867
3116.96	0.46775
3105.94	0.50972
3094.93	0.52995
3083.92	0.55019
3072.91	0.59842
3061.89	0.64574
3050.88	0.6911
3039.87	0.71869
3028.85	0.74628
3017.84	0.79976
3006.83	0.86231
2995.81	0.91967
2984.8	0.97212
2973.79	1.00101
2962.78	1.02991
2951.76	1.08197
2940.75	1.13742
2929.74	1.18176
2918.72	1.20505
2907.71	1.22834
2896.7	1.277
2885.68	1.32068
2874.67	1.35619
2863.66	1.3749
2852.64	1.39361
2841.63	1.43023
2830.62	1.46898
2819.61	1.49809
2808.59	1.52479
2797.58	1.54643
2786.57	1.5743
2775.55	1.5937
2764.54	1.61138
2753.53	1.62613
2742.51	1.64459
2731.5	1.66169
2720.49	1.68188
2709.48	1.6941
2698.46	1.7011
2687.45	1.7081
2676.44	1.71912
2665.42	1.73293
2654.41	1.74263
2643.4	1.74924
2632.38	1.75643
2621.37	1.7626
2610.36	1.76784
2599.35	1.77565
2588.33	1.78337
2577.32	1.78476
2566.31	1.78663
2555.29	1.78652
2544.28	1.78856
2533.27	1.78894
2522.25	1.79275
2511.24	1.7958
2500.23	1.80037
2489.21	1.80419
2478.2	1.80609
2467.19	1.808
2456.18	1.8141
2445.16	1.8202
2434.15	1.82706
2423.14	1.83469
2412.12	1.8385
2401.11	1.84002
2390.1	1.84079
2379.08	1.84231
2368.07	1.84079
2357.06	1.84307
2346.05	1.84384
2335.03	1.84422
2324.02	1.8446
2313.01	1.84612
2301.99	1.84765
2290.98	1.8507
2279.97	1.85375
2268.95	1.8568
2257.94	1.85832
2246.93	1.85985
2235.92	1.8629
2224.9	1.86595
2213.89	1.869
2202.88	1.87205
2191.86	1.87357
2180.85	1.8751
2169.84	1.87815
2158.82	1.8812
2147.81	1.88425
2136.8	1.88577
2125.79	1.8873
2114.77	1.89035
2103.76	1.8934
2092.75	1.89645
2081.73	1.89645
2070.72	1.89645
2059.71	1.89645
2048.69	1.8934
2037.68	1.89035
2026.67	1.8873
2015.65	1.88577
2004.64	1.88425
1993.63	1.8812
1982.62	1.87891
1971.6	1.87586
1960.59	1.87281
1949.58	1.87052
1938.56	1.86595
1927.55	1.8629
1916.54	1.85985
1905.52	1.8568
1894.51	1.85375
1883.5	1.8507
1872.49	1.84765
1861.47	1.84231
1850.46	1.8385
1839.45	1.83469
1828.43	1.82706
1817.42	1.80869
1806.41	1.79611
1795.39	1.78187
1784.38	1.76112
1773.37	1.74037
1762.36	1.69408
1751.34	1.62773
1740.33	1.56123
1729.32	1.47142
1718.3	1.33817
1707.29	1.16905
1696.28	0.9369
1685.26	0.79923
1674.25	0.66156
1663.24	0.44516
1652.22	0.36075
1641.21	0.25983
1630.2	0.22041
1619.19	0.18098
1608.17	0.21902
1597.16	0.31242
1586.15	0.43882
1575.13	0.57739
1564.12	0.63907
1553.11	0.70074
1542.09	0.79348
1531.08	0.86108
1520.07	0.92823
1509.06	0.95113
1498.04	0.97403
1487.03	1.00808
1476.02	1.01214
1465	1.01372
1453.99	1.01848
1442.98	1.02324
1431.96	1.03395
1420.95	1.04552
1409.94	1.07203
1398.93	1.11921
1387.91	1.12015
1376.9	1.12108
1365.89	1.12944
1354.87	1.12479
1343.86	1.12105
1332.85	1.11957
1321.83	1.11809
1310.82	1.11158
1299.81	1.10561
1288.79	1.10824
1277.78	1.10077
1266.77	1.08861
1255.76	1.07645
1244.74	1.00668
1233.73	0.93206
1222.72	0.87437
1211.7	0.8395
1200.69	0.80464
1189.68	0.68781
1178.66	0.56693
1167.65	0.54955
1156.64	0.58555
1145.63	0.62155
1134.61	0.54627
1123.6	0.36128
1112.59	0.19046
1101.57	0.06464
1090.56	0.03232
1079.55	0
1068.53	0.02219
1057.52	0.07881
1046.51	0.11152
1035.5	0.14808
1024.48	0.18032
1013.47	0.21256
1002.46	0.29535
991.443	0.38012
980.43	0.44325
969.417	0.49543
958.404	0.54761
947.391	0.61424
936.378	0.65767
925.365	0.67054
914.352	0.66687
903.339	0.66319
892.326	0.63615
881.313	0.6006
870.3	0.57807
859.287	0.63816
848.274	0.70536
837.261	0.77257
826.248	0.99519
815.235	1.25664
804.221	1.49453
793.208	1.57773
782.195	1.66094
771.182	1.69852
760.169	1.6558
749.156	1.50673
738.143	1.24197
727.13	0.98398
716.117	0.80421
705.104	0.72555
694.091	0.64689
683.078	0.49718
672.065	0.3834
661.052	0.30706
650.039	0.2856
639.026	0.26414
628.013	0.22565
617	0.17803
