Measurement: Infrared, Infrared Data RAW
Mineral: Clinohumite
Rruff sample: R040122
Ideal chemistry: Mg_9_(SiO_4_)_4_F_2_
Locality: Anzahamazonono,  Madagascar
Source: University of Arizona Mineral Museum
Description: Orange-brown blebs embedded in calcite matrix
Measured chemistry: (Mg_0.96_Fe_0.02_Ti_0.01_Ca_0.01_)_9_(SiO_4_)_4_(F_0.59_(OH)_0.41_)_2_
x	intensity
399.193	0.267153
408.835	0.252854
418.477	0.236138
428.12	0.200931
437.762	0.202263
447.404	0.173937
457.047	0.160772
466.689	0.157682
476.331	0.154329
485.974	0.148505
495.616	0.143695
505.258	0.113546
514.901	0.100462
524.543	0.119527
534.185	0.128369
543.828	0.100015
553.47	0.086623
563.112	0.068157
572.755	0.050036
582.397	0.042274
592.039	0.048946
601.682	0.070525
611.324	0.088533
620.966	0.080669
630.609	0.063078
640.251	0.044667
649.893	0.03192
659.536	0.026461
669.178	0.025239
678.82	0.025459
688.463	0.024574
698.105	0.023835
707.747	0.024251
717.39	0.026325
727.032	0.030669
736.674	0.042424
746.317	0.059277
755.959	0.057796
765.601	0.045494
775.244	0.045139
784.886	0.050641
794.528	0.059778
804.171	0.076425
813.813	0.090136
823.455	0.104122
833.098	0.13264
842.74	0.150802
852.382	0.154205
862.025	0.181509
871.667	0.207616
881.309	0.234807
890.952	0.235529
900.594	0.21438
910.236	0.191009
919.879	0.172785
929.521	0.157168
939.163	0.143001
948.806	0.136818
958.448	0.139191
968.09	0.116366
977.733	0.117677
987.375	0.125465
997.017	0.111221
1006.66	0.108625
1016.3	0.103291
1025.94	0.09649
1035.59	0.090045
1045.23	0.083728
1054.87	0.079963
1064.51	0.079181
1074.16	0.081934
1083.8	0.086462
1093.44	0.087995
1103.08	0.084483
1112.72	0.075106
1122.37	0.062735
1132.01	0.054628
1141.65	0.049561
1151.3	0.046605
1160.94	0.044345
1170.58	0.042537
1180.22	0.040012
1189.86	0.037321
1199.51	0.03467
1209.15	0.031795
1218.79	0.028
1228.43	0.024098
1238.08	0.019554
1247.72	0.014923
1257.36	0.011496
1267	0.009548
1276.64	0.007974
1286.29	0.00661
1295.93	0.006196
1305.57	0.006146
1315.21	0.005937
1324.86	0.005907
1334.5	0.00569
1344.14	0.005696
1353.78	0.005988
1363.43	0.006105
1373.07	0.006136
1382.71	0.006491
1392.35	0.00652
1401.99	0.007125
1411.64	0.007518
1421.28	0.007607
1430.92	0.008581
1440.57	0.009706
1450.21	0.010222
1459.85	0.010438
1469.49	0.010535
1479.13	0.010165
1488.78	0.009026
1498.42	0.008311
1508.06	0.006657
1517.7	0.007689
1527.35	0.007443
1536.99	0.006764
1546.63	0.007356
1556.27	0.005877
1565.91	0.00778
1575.56	0.006234
1585.2	0.008338
1594.84	0.008701
1604.48	0.00905
1614.13	0.009652
1623.77	0.009149
1633.41	0.009584
1643.05	0.009428
1652.7	0.003912
1662.34	0.007864
1671.98	0.007093
1681.62	0.006469
1691.27	0.006742
1700.91	0.003379
1710.55	0.006282
1720.19	0.005249
1729.84	0.005954
1739.48	0.005301
1749.12	0.00454
1758.76	0.005343
1768.4	0.004957
1778.05	0.005353
1787.69	0.00546
1797.33	0.005196
1806.97	0.005671
1816.62	0.004901
1826.26	0.005085
1835.9	0.005724
1845.54	0.004735
1855.18	0.005706
1864.83	0.005105
1874.47	0.00501
1884.11	0.004978
1893.75	0.005479
1903.4	0.004991
1913.04	0.005043
1922.68	0.003444
1932.32	0.004054
1941.97	0.002418
1951.61	0.002919
1961.25	0.000395
1970.89	0.001762
1980.54	0.005579
1990.18	0.00352
1999.82	0.002421
2009.46	0.002047
2019.11	0.003685
2028.75	0.0017
2038.39	0.003424
2048.03	0.004243
2057.67	0.003846
2067.32	0.003476
2076.96	0.005895
2086.6	0.00432
2096.24	0.005042
2105.89	0.004673
2115.53	0.005407
2125.17	0.004422
2134.81	0.004134
2144.45	0.001474
2154.1	-0.000379
2163.74	0.005494
2173.38	0.004595
2183.02	0.006179
2192.67	0.004614
2202.31	0.004332
2211.95	0.005918
2221.59	0.006694
2231.24	0.007617
2240.88	0.005894
2250.52	0.006116
2260.16	0.007543
2269.8	0.008424
2279.45	0.008944
2289.09	0.009531
2298.73	0.008216
2308.38	0.009221
2318.02	0.009196
2327.66	0.008122
2337.3	0.0079
2346.94	0.007951
2356.59	0.007914
2366.23	0.007285
2375.87	0.007967
2385.51	0.008826
2395.16	0.00882
2404.8	0.008228
2414.44	0.008352
2424.08	0.008781
2433.72	0.008478
2443.37	0.009523
2453.01	0.008992
2462.65	0.009341
2472.29	0.008298
2481.94	0.009321
2491.58	0.008445
2501.22	0.009466
2510.86	0.010437
2520.51	0.009193
2530.15	0.010435
2539.79	0.010448
2549.43	0.010082
2559.07	0.010896
2568.72	0.010237
2578.36	0.010415
2588	0.010507
2597.64	0.011391
2607.29	0.011299
2616.93	0.011365
2626.57	0.011444
2636.21	0.011576
2645.86	0.01098
2655.5	0.01159
2665.14	0.010619
2674.78	0.011122
2684.43	0.011256
2694.07	0.011187
2703.71	0.011241
2713.35	0.011322
2722.99	0.010849
2732.64	0.010382
2742.28	0.011032
2751.92	0.01183
2761.56	0.011438
2771.21	0.012147
2780.85	0.012073
2790.49	0.012442
2800.13	0.011996
2809.78	0.011973
2819.42	0.012238
2829.06	0.012355
2838.7	0.012285
2848.34	0.013094
2857.99	0.012965
2867.63	0.013135
2877.27	0.013425
2886.91	0.012908
2896.56	0.013673
2906.2	0.013733
2915.84	0.014052
2925.48	0.014465
2935.13	0.014195
2944.77	0.015321
2954.41	0.013661
2964.05	0.015388
2973.7	0.013942
2983.34	0.015323
2992.98	0.015208
3002.62	0.015116
3012.26	0.015257
3021.91	0.014614
3031.55	0.01567
3041.19	0.015341
3050.83	0.016558
3060.48	0.016089
3070.12	0.017029
3079.76	0.017317
3089.4	0.017564
3099.05	0.017553
3108.69	0.018482
3118.33	0.018275
3127.97	0.017826
3137.61	0.018012
3147.26	0.019267
3156.9	0.018287
3166.54	0.018482
3176.18	0.018922
3185.83	0.020482
3195.47	0.020266
3205.11	0.020023
3214.75	0.019482
3224.4	0.020353
3234.04	0.020385
3243.68	0.022199
3253.32	0.022536
3262.97	0.021055
3272.61	0.021971
3282.25	0.022736
3291.89	0.023465
3301.53	0.022222
3311.18	0.023585
3320.82	0.024558
3330.46	0.022937
3340.1	0.024349
3349.75	0.024339
3359.39	0.023502
3369.03	0.025219
3378.67	0.024506
3388.32	0.026543
3397.96	0.026886
3407.6	0.027185
3417.24	0.02414
3426.89	0.023458
3436.53	0.023144
3446.17	0.023308
3455.81	0.024323
3465.45	0.023758
3475.1	0.024648
3484.74	0.022252
3494.38	0.023481
3504.02	0.022554
3513.67	0.022346
3523.31	0.021938
3532.95	0.01993
3542.59	0.023141
3552.24	0.0222
3561.88	0.026302
3571.52	0.027309
3581.16	0.020182
3590.8	0.018374
3600.45	0.018651
3610.09	0.016954
3619.73	0.016421
3629.37	0.01408
3639.02	0.01689
3648.66	0.010895
3658.3	0.015188
3667.94	0.014579
3677.59	0.013385
3687.23	0.012507
3696.87	0.013981
3706.51	0.013518
3716.16	0.0116
3725.8	0.012392
3735.44	0.009662
3745.08	0.007816
3754.72	0.013775
3764.37	0.013738
3774.01	0.015158
3783.65	0.012889
3793.29	0.014022
3802.94	0.012218
3812.58	0.012855
3822.22	0.01248
3831.86	0.012066
3841.51	0.012531
3851.15	0.012699
3860.79	0.012974
3870.43	0.011324
3880.07	0.013442
3889.72	0.014229
3899.36	0.012475
3909	0.015326
3918.64	0.015499
3928.29	0.015199
3937.93	0.014409
3947.57	0.014481
3957.21	0.01409
3966.86	0.013009
3976.5	0.015152
3986.14	0.013535
3995.78	0.014721
