Measurement: Infrared, Infrared Data RAW
Mineral: Eliseevite
Rruff sample: R130075
Ideal chemistry: Na_1.5_Li{Ti^4+^_2_O_2_[Si_4_O_10.5_(OH)_1.5_]}2H_2_O
Locality: Mt. Alluaiv, Lovozero alkaline massif, Kola Peninsula, Russia
Source: Sergey V. Krivovichev
Description: Colorless to pale creamy transparent long-prismatic crystals. Associated with albite, analcime, catapleiite, chabazite-Ca, gmelinite-K, manganoneptunite, microcline, murmanite, and an ussingite. Data from Yakovenchuk et al (2011)
Measured chemistry: (Na_1.51_K_0.01_Ca_0.01_)_Σ=1.53_Li_0.98_[(Ti_1.89_Nb_0.03_Fe^3+^_0.01_Al_0.01_)_Σ=1.94_Si_4_O_12.26_(OH)_1.74_]∙2.12H_2_O
x	intensity
400.16	1.17614
409.802	1.26136
419.445	1.84375
429.087	1.50284
438.73	1.46023
448.372	1.61364
458.015	1.73296
467.657	1.7983
477.3	1.73296
486.942	1.75284
496.585	1.74148
506.227	1.75
515.87	1.75284
525.512	1.74716
535.155	1.66477
544.797	1.56534
554.44	1.55966
564.082	1.61364
573.725	1.64489
583.367	1.64773
593.01	1.625
602.652	1.58523
612.295	1.56534
621.937	1.55966
631.58	1.59375
641.222	1.63352
650.865	1.66193
660.507	1.63352
670.15	1.65909
679.792	1.66193
689.435	1.63921
699.077	1.62216
708.72	1.625
718.362	1.64204
728.005	1.68466
737.647	1.74716
747.289	1.78693
756.932	1.84091
766.574	1.89489
776.217	1.93182
785.859	1.96307
795.502	1.97159
805.144	1.98011
814.787	1.99432
824.429	1.9858
834.072	1.94034
843.714	1.93182
853.357	1.90909
862.999	1.86364
872.642	1.80966
882.284	1.76136
891.927	1.71591
901.569	1.65341
911.212	1.59659
920.854	1.52841
930.497	1.49148
940.139	1.48011
949.782	1.44602
959.424	1.38068
969.067	1.3125
978.709	1.26989
988.352	1.21591
997.994	1.12784
1007.64	1.05398
1017.28	1.03409
1026.92	1.06818
1036.56	1.1108
1046.21	1.15341
1055.85	1.19034
1065.49	1.22159
1075.13	1.26705
1084.78	1.32102
1094.42	1.35795
1104.06	1.375
1113.7	1.37784
1123.35	1.37216
1132.99	1.40057
1142.63	1.46875
1152.27	1.5142
1161.92	1.5483
1171.56	1.60227
1181.2	1.64773
1190.84	1.69886
1200.49	1.71591
1210.13	1.73011
1219.77	1.74148
1229.41	1.74716
1239.06	1.75
1248.7	1.75284
1258.34	1.75568
1267.98	1.7642
1277.63	1.78977
1287.27	1.81534
1296.91	1.82387
1306.55	1.82387
1316.2	1.81818
1325.84	1.80682
1335.48	1.77273
1345.12	1.79545
1354.77	1.7983
1364.41	1.78977
1374.05	1.7358
1383.69	1.72443
1393.34	1.74148
1402.98	1.76136
1412.62	1.77557
1422.26	1.78409
1431.91	1.77273
1441.55	1.7642
1451.19	1.77273
1460.83	1.78693
1470.48	1.82955
1480.12	1.86364
1489.76	1.91193
1499.4	1.86364
1509.05	1.87784
1518.69	1.86932
1528.33	1.84659
1537.97	1.86932
1547.62	1.82955
1557.26	1.89205
1566.9	1.8267
1576.54	1.82387
1586.19	1.74716
1595.83	1.70739
1605.47	1.64489
1615.11	1.58239
1624.76	1.47727
1634.4	1.4375
1644.04	1.48011
1653.68	1.57955
1663.33	1.59375
1672.97	1.6733
1682.61	1.75852
1692.25	1.75
1701.9	1.7983
1711.54	1.83239
1721.18	1.82955
1730.82	1.84659
1740.47	1.83523
1750.11	1.88068
1759.75	1.89773
1769.39	1.93182
1779.04	1.93182
1788.68	1.93182
1798.32	1.94034
1807.96	1.93466
1817.61	1.93182
1827.25	1.94034
1836.89	1.92898
1846.53	1.93466
1856.18	1.92045
1865.82	1.93182
1875.46	1.91477
1885.1	1.91193
1894.75	1.90909
1904.39	1.90057
1914.03	1.89489
1923.67	1.89773
1933.32	1.88352
1942.96	1.89205
1952.6	1.87216
1962.24	1.86932
1971.89	1.86932
1981.53	1.86364
1991.17	1.86364
2000.81	1.84943
2010.46	1.84659
2020.1	1.84375
2029.74	1.83523
2039.38	1.83239
2049.03	1.82955
2058.67	1.8267
2068.31	1.82387
2077.95	1.81818
2087.6	1.81534
2097.24	1.81534
2106.88	1.81534
2116.52	1.8125
2126.16	1.80682
2135.81	1.80398
2145.45	1.80114
2155.09	1.79545
2164.73	1.78977
2174.38	1.78693
2184.02	1.78977
2193.66	1.78977
2203.3	1.78693
2212.95	1.78409
2222.59	1.77841
2232.23	1.77273
2241.87	1.76989
2251.52	1.76989
2261.16	1.76705
2270.8	1.76705
2280.44	1.75568
2290.09	1.75
2299.73	1.74716
2309.37	1.73864
2319.01	1.7358
2328.66	1.73011
2338.3	1.72443
2347.94	1.71875
2357.58	1.71307
2367.23	1.70739
2376.87	1.70455
2386.51	1.70171
2396.15	1.69602
2405.8	1.69602
2415.44	1.69318
2425.08	1.68182
2434.72	1.68182
2444.37	1.67614
2454.01	1.6733
2463.65	1.66761
2473.29	1.66193
2482.94	1.65625
2492.58	1.65341
2502.22	1.64773
2511.86	1.64204
2521.51	1.63352
2531.15	1.62784
2540.79	1.625
2550.43	1.61648
2560.08	1.6108
2569.72	1.60227
2579.36	1.59943
2589	1.59375
2598.65	1.58807
2608.29	1.57955
2617.93	1.57671
2627.57	1.57102
2637.22	1.5625
2646.86	1.55398
2656.5	1.54545
2666.14	1.53977
2675.79	1.53409
2685.43	1.52841
2695.07	1.51989
2704.71	1.51136
2714.36	1.50284
2724	1.49432
2733.64	1.4858
2743.28	1.47727
2752.93	1.47443
2762.57	1.46591
2772.21	1.45739
2781.85	1.44602
2791.5	1.4375
2801.14	1.42614
2810.78	1.41477
2820.42	1.40057
2830.07	1.375
2839.71	1.34375
2849.35	1.25852
2858.99	1.25852
2868.64	1.27557
2878.28	1.26989
2887.92	1.25568
2897.56	1.23011
2907.21	1.19318
2916.85	1.11364
2926.49	1.08239
2936.13	1.14205
2945.78	1.1875
2955.42	1.1875
2965.06	1.19602
2974.7	1.22443
2984.35	1.23296
2993.99	1.2358
3003.63	1.22443
3013.27	1.22159
3022.92	1.20739
3032.56	1.19886
3042.2	1.17898
3051.84	1.16193
3061.49	1.14489
3071.13	1.12784
3080.77	1.11364
3090.41	1.09091
3100.06	1.07386
3109.7	1.05398
3119.34	1.03409
3128.98	1.00852
3138.63	0.9858
3148.27	0.96023
3157.91	0.93466
3167.55	0.90625
3177.2	0.88068
3186.84	0.85227
3196.48	0.82386
3206.12	0.79261
3215.77	0.76421
3225.41	0.7358
3235.05	0.70739
3244.69	0.68182
3254.34	0.65341
3263.98	0.62216
3273.62	0.59943
3283.26	0.57102
3292.91	0.54546
3302.55	0.51421
3312.19	0.47727
3321.83	0.4375
3331.48	0.39205
3341.12	0.34659
3350.76	0.29545
3360.4	0.23864
3370.05	0.1875
3379.69	0.13352
3389.33	0.09091
3398.97	0.05682
3408.62	0.02273
3418.26	0.00852
3427.9	0
3437.54	0.00284
3447.19	0.01705
3456.83	0.03125
3466.47	0.0625
3476.11	0.08807
3485.76	0.125
3495.4	0.16477
3505.04	0.2017
3514.68	0.24148
3524.33	0.2983
3533.97	0.33239
3543.61	0.38921
3553.25	0.42898
3562.9	0.48011
3572.54	0.51421
3582.18	0.57386
3591.82	0.63637
3601.47	0.71023
3611.11	0.79261
3620.75	0.86648
3630.39	0.93182
3640.04	0.94886
3649.68	1.05398
3659.32	1.01705
3668.96	1.07386
3678.61	1.06534
3688.25	1.09659
3697.89	1.0767
3707.53	1.09659
3717.18	1.08239
3726.82	1.10227
3736.46	1.11932
3746.1	1.11648
3755.75	1.09659
3765.39	1.09091
3775.03	1.07102
3784.67	1.07955
3794.32	1.07386
3803.96	1.08523
3813.6	1.07102
3823.24	1.0767
3832.88	1.07102
3842.53	1.06818
3852.17	1.10227
3861.81	1.05398
3871.45	1.05966
3881.1	1.05114
3890.74	1.03977
3900.38	1.04545
3910.02	1.00284
3919.67	1.01136
3929.31	1.00568
3938.95	0.99148
3948.59	1
3958.24	0.98295
3967.88	0.97727
3977.52	0.97443
3987.16	0.96875
3996.81	0.96307
