Measurement: Infrared, Infrared Data RAW
Mineral: Gaylussite
Rruff sample: R040146
Ideal chemistry: Na_2_Ca(CO_3_)_2_5H_2_O
Locality: Searles Lake, Trona, San Bernardino County, California, USA
Source: University of Arizona Mineral Museum
Description: Colorless crystal fragments
Measured chemistry: Na_2.00_Ca_1.00_(C_1.00_O_3_)_2_Â·5H_2_O
x	intensity
399.193	0.015371
408.835	0.014972
418.477	0.019445
428.12	0.020292
437.762	0.024441
447.404	0.028045
457.047	0.03161
466.689	0.03576
476.331	0.041647
485.974	0.047065
495.616	0.054755
505.258	0.064
514.901	0.073517
524.543	0.074611
534.185	0.066406
543.828	0.065285
553.47	0.065836
563.112	0.063057
572.755	0.058347
582.397	0.054967
592.039	0.05534
601.682	0.057855
611.324	0.061232
620.966	0.064953
630.609	0.069336
640.251	0.07341
649.893	0.075118
659.536	0.071203
669.178	0.064029
678.82	0.057164
688.463	0.075391
698.105	0.074099
707.747	0.063985
717.39	0.07253
727.032	0.058784
736.674	0.044538
746.317	0.040681
755.959	0.039981
765.601	0.040489
775.244	0.042969
784.886	0.047642
794.528	0.054222
804.171	0.058441
813.813	0.054749
823.455	0.051461
833.098	0.058151
842.74	0.074022
852.382	0.092235
862.025	0.10207
871.667	0.112062
881.309	0.077661
890.952	0.052801
900.594	0.055442
910.236	0.04704
919.879	0.038817
929.521	0.030489
939.163	0.02389
948.806	0.019848
958.448	0.017554
968.09	0.016498
977.733	0.015412
987.375	0.015274
997.017	0.014897
1006.66	0.015278
1016.3	0.015342
1025.94	0.015157
1035.59	0.015092
1045.23	0.01542
1054.87	0.01592
1064.51	0.01694
1074.16	0.017129
1083.8	0.017341
1093.44	0.017391
1103.08	0.018358
1112.72	0.018789
1122.37	0.019834
1132.01	0.02057
1141.65	0.021403
1151.3	0.022539
1160.94	0.023344
1170.58	0.024507
1180.22	0.025819
1189.86	0.027309
1199.51	0.028963
1209.15	0.031394
1218.79	0.033726
1228.43	0.036509
1238.08	0.039651
1247.72	0.043187
1257.36	0.047189
1267	0.051629
1276.64	0.05731
1286.29	0.063394
1295.93	0.070119
1305.57	0.078393
1315.21	0.087958
1324.86	0.099586
1334.5	0.112297
1344.14	0.128812
1353.78	0.149047
1363.43	0.175023
1373.07	0.200934
1382.71	0.237159
1392.35	0.274419
1401.99	0.289626
1411.64	0.279692
1421.28	0.26188
1430.92	0.24109
1440.57	0.208164
1450.21	0.16266
1459.85	0.118866
1469.49	0.086206
1479.13	0.064164
1488.78	0.050654
1498.42	0.042743
1508.06	0.039137
1517.7	0.036305
1527.35	0.035121
1536.99	0.035325
1546.63	0.035242
1556.27	0.035843
1565.91	0.036854
1575.56	0.039861
1585.2	0.042033
1594.84	0.04499
1604.48	0.047091
1614.13	0.046984
1623.77	0.045335
1633.41	0.044127
1643.05	0.04511
1652.7	0.049778
1662.34	0.048941
1671.98	0.040874
1681.62	0.032552
1691.27	0.028002
1700.91	0.026915
1710.55	0.024628
1720.19	0.021456
1729.84	0.01793
1739.48	0.016864
1749.12	0.016114
1758.76	0.014955
1768.4	0.013655
1778.05	0.013533
1787.69	0.013637
1797.33	0.012375
1806.97	0.010683
1816.62	0.009919
1826.26	0.009648
1835.9	0.009352
1845.54	0.008766
1855.18	0.00882
1864.83	0.008071
1874.47	0.008054
1884.11	0.008026
1893.75	0.008225
1903.4	0.007651
1913.04	0.006796
1922.68	0.006986
1932.32	0.008611
1941.97	0.006235
1951.61	0.007631
1961.25	0.00726
1970.89	0.005964
1980.54	0.008607
1990.18	0.010145
1999.82	0.008479
2009.46	0.007512
2019.11	0.008755
2028.75	0.006229
2038.39	0.00942
2048.03	0.009469
2057.67	0.010597
2067.32	0.010196
2076.96	0.01061
2086.6	0.011449
2096.24	0.010745
2105.89	0.010765
2115.53	0.011752
2125.17	0.011999
2134.81	0.010308
2144.45	0.0119
2154.1	0.011776
2163.74	0.014931
2173.38	0.013892
2183.02	0.015036
2192.67	0.017097
2202.31	0.018694
2211.95	0.018651
2221.59	0.018351
2231.24	0.020885
2240.88	0.019367
2250.52	0.018728
2260.16	0.021086
2269.8	0.022289
2279.45	0.022797
2289.09	0.022333
2298.73	0.023549
2308.38	0.024979
2318.02	0.025832
2327.66	0.027344
2337.3	0.028463
2346.94	0.027831
2356.59	0.029833
2366.23	0.030452
2375.87	0.029214
2385.51	0.028597
2395.16	0.02805
2404.8	0.027771
2414.44	0.027951
2424.08	0.02835
2433.72	0.026984
2443.37	0.028009
2453.01	0.029659
2462.65	0.029763
2472.29	0.028455
2481.94	0.028008
2491.58	0.028213
2501.22	0.02803
2510.86	0.028345
2520.51	0.027711
2530.15	0.027123
2539.79	0.027732
2549.43	0.027227
2559.07	0.027069
2568.72	0.027936
2578.36	0.028274
2588	0.029828
2597.64	0.029715
2607.29	0.031454
2616.93	0.031682
2626.57	0.032787
2636.21	0.033427
2645.86	0.03426
2655.5	0.035337
2665.14	0.035546
2674.78	0.036767
2684.43	0.037609
2694.07	0.038897
2703.71	0.040304
2713.35	0.041635
2722.99	0.042267
2732.64	0.044015
2742.28	0.045877
2751.92	0.047998
2761.56	0.049651
2771.21	0.052819
2780.85	0.054607
2790.49	0.057066
2800.13	0.059978
2809.78	0.062765
2819.42	0.067215
2829.06	0.071045
2838.7	0.075271
2848.34	0.0798
2857.99	0.08596
2867.63	0.090922
2877.27	0.096554
2886.91	0.102737
2896.56	0.108871
2906.2	0.114836
2915.84	0.121155
2925.48	0.125453
2935.13	0.130253
2944.77	0.131013
2954.41	0.131211
2964.05	0.127524
2973.7	0.124656
2983.34	0.120051
2992.98	0.115491
3002.62	0.109637
3012.26	0.105095
3021.91	0.100602
3031.55	0.098122
3041.19	0.09565
3050.83	0.09282
3060.48	0.09007
3070.12	0.088812
3079.76	0.086628
3089.4	0.085675
3099.05	0.084853
3108.69	0.082918
3118.33	0.08247
3127.97	0.08222
3137.61	0.082313
3147.26	0.082381
3156.9	0.082012
3166.54	0.083489
3176.18	0.084993
3185.83	0.085222
3195.47	0.08743
3205.11	0.090412
3214.75	0.090859
3224.4	0.092036
3234.04	0.095522
3243.68	0.097412
3253.32	0.099477
3262.97	0.101326
3272.61	0.102598
3282.25	0.101279
3291.89	0.101321
3301.53	0.100975
3311.18	0.102471
3320.82	0.105445
3330.46	0.107569
3340.1	0.105848
3349.75	0.097105
3359.39	0.087287
3369.03	0.078114
3378.67	0.072634
3388.32	0.067931
3397.96	0.063995
3407.6	0.061713
3417.24	0.058235
3426.89	0.054833
3436.53	0.05312
3446.17	0.050428
3455.81	0.047169
3465.45	0.045531
3475.1	0.042689
3484.74	0.039454
3494.38	0.037189
3504.02	0.034176
3513.67	0.030887
3523.31	0.028299
3532.95	0.026097
3542.59	0.024192
3552.24	0.021801
3561.88	0.019823
3571.52	0.019663
3581.16	0.016885
3590.8	0.016196
3600.45	0.015116
3610.09	0.013304
3619.73	0.012615
3629.37	0.012917
3639.02	0.01331
3648.66	0.01166
3658.3	0.011289
3667.94	0.009704
3677.59	0.012022
3687.23	0.011012
3696.87	0.011684
3706.51	0.011336
3716.16	0.011067
3725.8	0.013117
3735.44	0.013005
3745.08	0.011772
3754.72	0.012745
3764.37	0.01226
3774.01	0.013692
3783.65	0.012456
3793.29	0.010778
3802.94	0.012812
3812.58	0.012735
3822.22	0.014966
3831.86	0.012757
3841.51	0.015991
3851.15	0.01588
3860.79	0.013617
3870.43	0.013429
3880.07	0.016265
3889.72	0.013081
3899.36	0.014946
3909	0.01482
3918.64	0.013627
3928.29	0.013901
3937.93	0.015404
3947.57	0.016133
3957.21	0.014962
3966.86	0.016446
3976.5	0.015623
3986.14	0.014941
3995.78	0.014649
