Measurement: Infrared, Infrared Data RAW
Mineral: Grunerite
Rruff sample: R040150
Ideal chemistry: [box]Fe^2+^_2_Fe^2+^_5_Si_8_O_22_(OH)_2_
Locality: Smallwood mine, Heath Lake, Newfoundland, Canada
Source: University of Arizona Mineral Museum
Description: Brown bladed crystals in parallel aggregate
Measured chemistry: (Fe_0.69_Mg_0.27_Ca_0.02_Mn_0.02_)_7_Si_8.02_O_22_((OH)_0.98_Cl_0.02_)_2_
x	intensity
399.193	0.186699
408.835	0.185362
418.477	0.204062
428.12	0.195353
437.762	0.16713
447.404	0.178153
457.047	0.196038
466.689	0.228033
476.331	0.2361
485.974	0.21466
495.616	0.196231
505.258	0.18508
514.901	0.161933
524.543	0.139463
534.185	0.125638
543.828	0.102438
553.47	0.081262
563.112	0.065382
572.755	0.05019
582.397	0.037964
592.039	0.032196
601.682	0.033312
611.324	0.041167
620.966	0.060814
630.609	0.085265
640.251	0.071959
649.893	0.054473
659.536	0.048138
669.178	0.038669
678.82	0.044789
688.463	0.061623
698.105	0.077895
707.747	0.064177
717.39	0.042005
727.032	0.043409
736.674	0.039931
746.317	0.036515
755.959	0.047064
765.601	0.063633
775.244	0.088614
784.886	0.053965
794.528	0.041122
804.171	0.042633
813.813	0.048347
823.455	0.056956
833.098	0.069483
842.74	0.086432
852.382	0.109766
862.025	0.140845
871.667	0.179782
881.309	0.213457
890.952	0.218378
900.594	0.21159
910.236	0.220633
919.879	0.254759
929.521	0.299546
939.163	0.341379
948.806	0.361362
958.448	0.359951
968.09	0.33528
977.733	0.306193
987.375	0.293939
997.017	0.282634
1006.66	0.248651
1016.3	0.211672
1025.94	0.182681
1035.59	0.159126
1045.23	0.136333
1054.87	0.117533
1064.51	0.116728
1074.16	0.131251
1083.8	0.127628
1093.44	0.100918
1103.08	0.070157
1112.72	0.05651
1122.37	0.078053
1132.01	0.082082
1141.65	0.051679
1151.3	0.026258
1160.94	0.014852
1170.58	0.010843
1180.22	0.009017
1189.86	0.007401
1199.51	0.00631
1209.15	0.005808
1218.79	0.004897
1228.43	0.004404
1238.08	0.004129
1247.72	0.003956
1257.36	0.003998
1267	0.003707
1276.64	0.003898
1286.29	0.004106
1295.93	0.003779
1305.57	0.003971
1315.21	0.00385
1324.86	0.004231
1334.5	0.003938
1344.14	0.004298
1353.78	0.004332
1363.43	0.004852
1373.07	0.004779
1382.71	0.00494
1392.35	0.005205
1401.99	0.005227
1411.64	0.005376
1421.28	0.005465
1430.92	0.005425
1440.57	0.005314
1450.21	0.00525
1459.85	0.005252
1469.49	0.004946
1479.13	0.005081
1488.78	0.00537
1498.42	0.005567
1508.06	0.006196
1517.7	0.005579
1527.35	0.005588
1536.99	0.005767
1546.63	0.005856
1556.27	0.006283
1565.91	0.006068
1575.56	0.006746
1585.2	0.006561
1594.84	0.006938
1604.48	0.007278
1614.13	0.007197
1623.77	0.00778
1633.41	0.008121
1643.05	0.007863
1652.7	0.008758
1662.34	0.007246
1671.98	0.007132
1681.62	0.006687
1691.27	0.006311
1700.91	0.006635
1710.55	0.006085
1720.19	0.006269
1729.84	0.00605
1739.48	0.006312
1749.12	0.006255
1758.76	0.006142
1768.4	0.006217
1778.05	0.006468
1787.69	0.006313
1797.33	0.006139
1806.97	0.005759
1816.62	0.005557
1826.26	0.005217
1835.9	0.005664
1845.54	0.005099
1855.18	0.005374
1864.83	0.005685
1874.47	0.004881
1884.11	0.004993
1893.75	0.005495
1903.4	0.004487
1913.04	0.003847
1922.68	0.003227
1932.32	0.003633
1941.97	0.000992
1951.61	0.001771
1961.25	0.000769
1970.89	-0.001107
1980.54	0.00176
1990.18	0.00229
1999.82	0.000388
2009.46	5.1e-05
2019.11	-0.000241
2028.75	-0.001539
2038.39	0.001604
2048.03	0.00352
2057.67	0.004514
2067.32	0.004293
2076.96	0.005261
2086.6	0.005645
2096.24	0.004777
2105.89	0.0059
2115.53	0.006551
2125.17	0.005505
2134.81	0.002728
2144.45	0.001679
2154.1	-0.001179
2163.74	0.006318
2173.38	0.003584
2183.02	0.003984
2192.67	0.006582
2202.31	0.009115
2211.95	0.007646
2221.59	0.008813
2231.24	0.010329
2240.88	0.008032
2250.52	0.00653
2260.16	0.007769
2269.8	0.010112
2279.45	0.010409
2289.09	0.010602
2298.73	0.011595
2308.38	0.012469
2318.02	0.012734
2327.66	0.013264
2337.3	0.013019
2346.94	0.012204
2356.59	0.01341
2366.23	0.013229
2375.87	0.011539
2385.51	0.011803
2395.16	0.011029
2404.8	0.010993
2414.44	0.011809
2424.08	0.012269
2433.72	0.011345
2443.37	0.012022
2453.01	0.012464
2462.65	0.01167
2472.29	0.012998
2481.94	0.012983
2491.58	0.012453
2501.22	0.013031
2510.86	0.013321
2520.51	0.012794
2530.15	0.012633
2539.79	0.013249
2549.43	0.013283
2559.07	0.013154
2568.72	0.014354
2578.36	0.013811
2588	0.013981
2597.64	0.013482
2607.29	0.014423
2616.93	0.014447
2626.57	0.014948
2636.21	0.015477
2645.86	0.015282
2655.5	0.015567
2665.14	0.014601
2674.78	0.014522
2684.43	0.014729
2694.07	0.014582
2703.71	0.015378
2713.35	0.015629
2722.99	0.015377
2732.64	0.01577
2742.28	0.016604
2751.92	0.01611
2761.56	0.016401
2771.21	0.017264
2780.85	0.016586
2790.49	0.01683
2800.13	0.01675
2809.78	0.016676
2819.42	0.017402
2829.06	0.017366
2838.7	0.017063
2848.34	0.017574
2857.99	0.018903
2867.63	0.018346
2877.27	0.01809
2886.91	0.018628
2896.56	0.019026
2906.2	0.018612
2915.84	0.019355
2925.48	0.01928
2935.13	0.020909
2944.77	0.019748
2954.41	0.020278
2964.05	0.020036
2973.7	0.020761
2983.34	0.020928
2992.98	0.021151
3002.62	0.020471
3012.26	0.021185
3021.91	0.020739
3031.55	0.021349
3041.19	0.021419
3050.83	0.021782
3060.48	0.022199
3070.12	0.022033
3079.76	0.02276
3089.4	0.023034
3099.05	0.022411
3108.69	0.023571
3118.33	0.023161
3127.97	0.023382
3137.61	0.024787
3147.26	0.024544
3156.9	0.024052
3166.54	0.025419
3176.18	0.025176
3185.83	0.024802
3195.47	0.026204
3205.11	0.025665
3214.75	0.024819
3224.4	0.024741
3234.04	0.025607
3243.68	0.02636
3253.32	0.026399
3262.97	0.026482
3272.61	0.026687
3282.25	0.026858
3291.89	0.027216
3301.53	0.027092
3311.18	0.026847
3320.82	0.026983
3330.46	0.027279
3340.1	0.028551
3349.75	0.02788
3359.39	0.027641
3369.03	0.027259
3378.67	0.028958
3388.32	0.028135
3397.96	0.02872
3407.6	0.028722
3417.24	0.029802
3426.89	0.029235
3436.53	0.028146
3446.17	0.02934
3455.81	0.028666
3465.45	0.028511
3475.1	0.028229
3484.74	0.029764
3494.38	0.030139
3504.02	0.030965
3513.67	0.030111
3523.31	0.030142
3532.95	0.030523
3542.59	0.030502
3552.24	0.029188
3561.88	0.02939
3571.52	0.031841
3581.16	0.028941
3590.8	0.029903
3600.45	0.03098
3610.09	0.032331
3619.73	0.041594
3629.37	0.031093
3639.02	0.043915
3648.66	0.029439
3658.3	0.029392
3667.94	0.026455
3677.59	0.027509
3687.23	0.026112
3696.87	0.026283
3706.51	0.026921
3716.16	0.02636
3725.8	0.028391
3735.44	0.028469
3745.08	0.027324
3754.72	0.028789
3764.37	0.028255
3774.01	0.029758
3783.65	0.029169
3793.29	0.028133
3802.94	0.029445
3812.58	0.029208
3822.22	0.031083
3831.86	0.028309
3841.51	0.030251
3851.15	0.032379
3860.79	0.030016
3870.43	0.030111
3880.07	0.031925
3889.72	0.030098
3899.36	0.030595
3909	0.031282
3918.64	0.031051
3928.29	0.029656
3937.93	0.031453
3947.57	0.031393
3957.21	0.031147
3966.86	0.033525
3976.5	0.03155
3986.14	0.031399
3995.78	0.031159
