Measurement: Infrared, Infrared Data RAW
Mineral: Meionite
Rruff sample: R040169
Ideal chemistry: Ca_4_Al_6_Si_6_O_24_(CO_3_)
Locality: Black Hills, South Dakota, USA
Source: University of Arizona Mineral Museum
Description: White massive
Measured chemistry: (Ca_0.73_Na_0.24_K_0.03_)_4_(Si_0.58_Al_0.41_)_12_O_24_((CO_3_)_0.90_Cl_0.10_)
x	intensity
399.193	0.153372
408.835	0.152371
418.477	0.145999
428.12	0.13985
437.762	0.138728
447.404	0.162805
457.047	0.171047
466.689	0.134767
476.331	0.088503
485.974	0.059293
495.616	0.05339
505.258	0.052491
514.901	0.06705
524.543	0.101313
534.185	0.140062
543.828	0.14488
553.47	0.102725
563.112	0.065993
572.755	0.059069
582.397	0.055184
592.039	0.067667
601.682	0.108384
611.324	0.110868
620.966	0.06318
630.609	0.040108
640.251	0.033948
649.893	0.030346
659.536	0.03172
669.178	0.03856
678.82	0.04938
688.463	0.057775
698.105	0.059553
707.747	0.049837
717.39	0.044168
727.032	0.044294
736.674	0.045809
746.317	0.039765
755.959	0.030641
765.601	0.027469
775.244	0.025221
784.886	0.022915
794.528	0.023508
804.171	0.026033
813.813	0.029353
823.455	0.034403
833.098	0.042572
842.74	0.05731
852.382	0.077919
862.025	0.085836
871.667	0.095972
881.309	0.093519
890.952	0.098715
900.594	0.118081
910.236	0.133647
919.879	0.146787
929.521	0.162007
939.163	0.176076
948.806	0.188056
958.448	0.195922
968.09	0.201028
977.733	0.208146
987.375	0.213921
997.017	0.207811
1006.66	0.188589
1016.3	0.167564
1025.94	0.152385
1035.59	0.135353
1045.23	0.120527
1054.87	0.110806
1064.51	0.105166
1074.16	0.098567
1083.8	0.091518
1093.44	0.087308
1103.08	0.081879
1112.72	0.072007
1122.37	0.060336
1132.01	0.049835
1141.65	0.049819
1151.3	0.059487
1160.94	0.072249
1170.58	0.067055
1180.22	0.056243
1189.86	0.04766
1199.51	0.033401
1209.15	0.020326
1218.79	0.012104
1228.43	0.008512
1238.08	0.006915
1247.72	0.006217
1257.36	0.005989
1267	0.005837
1276.64	0.005763
1286.29	0.005896
1295.93	0.006199
1305.57	0.006526
1315.21	0.006917
1324.86	0.007657
1334.5	0.00857
1344.14	0.00962
1353.78	0.011178
1363.43	0.013356
1373.07	0.018004
1382.71	0.02494
1392.35	0.033142
1401.99	0.046687
1411.64	0.056153
1421.28	0.052449
1430.92	0.0423
1440.57	0.03591
1450.21	0.034169
1459.85	0.032993
1469.49	0.032019
1479.13	0.031417
1488.78	0.030589
1498.42	0.029895
1508.06	0.035545
1517.7	0.04837
1527.35	0.046767
1536.99	0.032703
1546.63	0.021942
1556.27	0.015893
1565.91	0.011734
1575.56	0.009332
1585.2	0.008821
1594.84	0.008355
1604.48	0.007742
1614.13	0.007395
1623.77	0.007487
1633.41	0.007093
1643.05	0.006957
1652.7	0.006256
1662.34	0.006495
1671.98	0.006573
1681.62	0.006098
1691.27	0.005778
1700.91	0.005326
1710.55	0.005457
1720.19	0.00503
1729.84	0.005249
1739.48	0.005161
1749.12	0.005048
1758.76	0.005233
1768.4	0.005399
1778.05	0.005101
1787.69	0.004959
1797.33	0.005845
1806.97	0.004532
1816.62	0.004164
1826.26	0.004262
1835.9	0.00434
1845.54	0.004485
1855.18	0.005056
1864.83	0.004448
1874.47	0.00472
1884.11	0.003814
1893.75	0.004543
1903.4	0.00388
1913.04	0.003038
1922.68	0.002928
1932.32	0.002854
1941.97	0.003232
1951.61	0.001783
1961.25	-0.000477
1970.89	0.000998
1980.54	0.002061
1990.18	0.001927
1999.82	-0.000544
2009.46	0.001391
2019.11	-0.001912
2028.75	0.00014
2038.39	0.002439
2048.03	0.00232
2057.67	0.003339
2067.32	0.004091
2076.96	0.005496
2086.6	0.004947
2096.24	0.005546
2105.89	0.005309
2115.53	0.005962
2125.17	0.003332
2134.81	0.004272
2144.45	0.002071
2154.1	0.000172
2163.74	0.005861
2173.38	0.003281
2183.02	0.005525
2192.67	0.003655
2202.31	0.005953
2211.95	0.006205
2221.59	0.005156
2231.24	0.005876
2240.88	0.004929
2250.52	0.007409
2260.16	0.006914
2269.8	0.006771
2279.45	0.00661
2289.09	0.0089
2298.73	0.007649
2308.38	0.008737
2318.02	0.008272
2327.66	0.007725
2337.3	0.007909
2346.94	0.008276
2356.59	0.008144
2366.23	0.007683
2375.87	0.006805
2385.51	0.007069
2395.16	0.007463
2404.8	0.008268
2414.44	0.008412
2424.08	0.008236
2433.72	0.00826
2443.37	0.009767
2453.01	0.009185
2462.65	0.009018
2472.29	0.009017
2481.94	0.008615
2491.58	0.008531
2501.22	0.009327
2510.86	0.00919
2520.51	0.009263
2530.15	0.009116
2539.79	0.009323
2549.43	0.008707
2559.07	0.010373
2568.72	0.010326
2578.36	0.009211
2588	0.009712
2597.64	0.011212
2607.29	0.010955
2616.93	0.010696
2626.57	0.010386
2636.21	0.010335
2645.86	0.010753
2655.5	0.01104
2665.14	0.010691
2674.78	0.010305
2684.43	0.009937
2694.07	0.009944
2703.71	0.010577
2713.35	0.009643
2722.99	0.010471
2732.64	0.010488
2742.28	0.010356
2751.92	0.010459
2761.56	0.009894
2771.21	0.010601
2780.85	0.010074
2790.49	0.010755
2800.13	0.009436
2809.78	0.010855
2819.42	0.010189
2829.06	0.010372
2838.7	0.01075
2848.34	0.009814
2857.99	0.010972
2867.63	0.011064
2877.27	0.010629
2886.91	0.011511
2896.56	0.011539
2906.2	0.011565
2915.84	0.011808
2925.48	0.01085
2935.13	0.011239
2944.77	0.012129
2954.41	0.011266
2964.05	0.010739
2973.7	0.011428
2983.34	0.011139
2992.98	0.010997
3002.62	0.011767
3012.26	0.011327
3021.91	0.011762
3031.55	0.010353
3041.19	0.010851
3050.83	0.011463
3060.48	0.01165
3070.12	0.011006
3079.76	0.012353
3089.4	0.012646
3099.05	0.01293
3108.69	0.013143
3118.33	0.012874
3127.97	0.014806
3137.61	0.012954
3147.26	0.013808
3156.9	0.013271
3166.54	0.013279
3176.18	0.014621
3185.83	0.013225
3195.47	0.013887
3205.11	0.014498
3214.75	0.014999
3224.4	0.014438
3234.04	0.014342
3243.68	0.015114
3253.32	0.014249
3262.97	0.01418
3272.61	0.014322
3282.25	0.013613
3291.89	0.015132
3301.53	0.014728
3311.18	0.014441
3320.82	0.014813
3330.46	0.015041
3340.1	0.015493
3349.75	0.014134
3359.39	0.01604
3369.03	0.015559
3378.67	0.01382
3388.32	0.015324
3397.96	0.015006
3407.6	0.015192
3417.24	0.015732
3426.89	0.015105
3436.53	0.015608
3446.17	0.013878
3455.81	0.013861
3465.45	0.014833
3475.1	0.01427
3484.74	0.013918
3494.38	0.014864
3504.02	0.016032
3513.67	0.014891
3523.31	0.016152
3532.95	0.014587
3542.59	0.013677
3552.24	0.013753
3561.88	0.016222
3571.52	0.013149
3581.16	0.015772
3590.8	0.015311
3600.45	0.015146
3610.09	0.014511
3619.73	0.014565
3629.37	0.014517
3639.02	0.01244
3648.66	0.013516
3658.3	0.012815
3667.94	0.012799
3677.59	0.015517
3687.23	0.011551
3696.87	0.012801
3706.51	0.013152
3716.16	0.012736
3725.8	0.013387
3735.44	0.012705
3745.08	0.012407
3754.72	0.015681
3764.37	0.013162
3774.01	0.013927
3783.65	0.013389
3793.29	0.014246
3802.94	0.013904
3812.58	0.01449
3822.22	0.015581
3831.86	0.01422
3841.51	0.01356
3851.15	0.013494
3860.79	0.015226
3870.43	0.013923
3880.07	0.014318
3889.72	0.014281
3899.36	0.013714
3909	0.013336
3918.64	0.014
3928.29	0.014093
3937.93	0.014441
3947.57	0.01371
3957.21	0.016547
3966.86	0.012611
3976.5	0.014345
3986.14	0.015351
3995.78	0.014492
