Measurement: Infrared, Infrared Data RAW
Mineral: Mesolite
Rruff sample: R040140
Ideal chemistry: Na_2_Ca_2_(Si_9_Al_6_)O_30_8H_2_O
Locality: Challis, Idaho, USA
Source: University of Arizona Mineral Museum
Description: White fibrous mass, associated with barrierite
Measured chemistry: Na_1.88_Ca_1.96_(Si_9.19_Al_5.82_)O_30_Â·8H_2_O
x	intensity
399.193	0.159317
408.835	0.16707
418.477	0.197708
428.12	0.183527
437.762	0.153232
447.404	0.119292
457.047	0.103861
466.689	0.105698
476.331	0.110032
485.974	0.114387
495.616	0.122033
505.258	0.120079
514.901	0.113822
524.543	0.109403
534.185	0.115336
543.828	0.12036
553.47	0.114072
563.112	0.110243
572.755	0.105588
582.397	0.105428
592.039	0.101966
601.682	0.101488
611.324	0.104109
620.966	0.102656
630.609	0.09754
640.251	0.083724
649.893	0.0704
659.536	0.067511
669.178	0.07174
678.82	0.069135
688.463	0.080128
698.105	0.06899
707.747	0.06012
717.39	0.062849
727.032	0.057261
736.674	0.042066
746.317	0.032437
755.959	0.029096
765.601	0.028301
775.244	0.028761
784.886	0.027688
794.528	0.025318
804.171	0.022792
813.813	0.020593
823.455	0.020031
833.098	0.021267
842.74	0.024012
852.382	0.027367
862.025	0.032059
871.667	0.038966
881.309	0.045625
890.952	0.056049
900.594	0.071987
910.236	0.09951
919.879	0.142233
929.521	0.198729
939.163	0.252385
948.806	0.207693
958.448	0.21574
968.09	0.290934
977.733	0.326408
987.375	0.301577
997.017	0.275393
1006.66	0.263597
1016.3	0.250467
1025.94	0.217232
1035.59	0.183824
1045.23	0.166083
1054.87	0.151822
1064.51	0.131968
1074.16	0.106821
1083.8	0.105869
1093.44	0.125095
1103.08	0.110905
1112.72	0.096689
1122.37	0.082616
1132.01	0.073325
1141.65	0.061021
1151.3	0.051389
1160.94	0.044319
1170.58	0.038899
1180.22	0.034378
1189.86	0.02918
1199.51	0.022245
1209.15	0.015783
1218.79	0.011185
1228.43	0.008554
1238.08	0.007143
1247.72	0.006095
1257.36	0.005438
1267	0.004798
1276.64	0.004607
1286.29	0.004508
1295.93	0.00398
1305.57	0.004055
1315.21	0.003829
1324.86	0.003828
1334.5	0.0035
1344.14	0.003763
1353.78	0.003564
1363.43	0.003736
1373.07	0.003295
1382.71	0.003528
1392.35	0.003433
1401.99	0.003516
1411.64	0.003857
1421.28	0.00402
1430.92	0.003954
1440.57	0.004253
1450.21	0.004352
1459.85	0.004476
1469.49	0.004046
1479.13	0.004094
1488.78	0.004054
1498.42	0.004397
1508.06	0.004691
1517.7	0.004352
1527.35	0.004359
1536.99	0.004782
1546.63	0.005097
1556.27	0.005579
1565.91	0.00593
1575.56	0.007658
1585.2	0.009172
1594.84	0.010122
1604.48	0.010155
1614.13	0.012202
1623.77	0.017337
1633.41	0.023789
1643.05	0.030823
1652.7	0.028114
1662.34	0.030392
1671.98	0.015594
1681.62	0.0099
1691.27	0.007182
1700.91	0.006288
1710.55	0.004657
1720.19	0.00431
1729.84	0.003607
1739.48	0.003943
1749.12	0.003524
1758.76	0.003117
1768.4	0.003156
1778.05	0.003075
1787.69	0.002651
1797.33	0.00266
1806.97	0.002415
1816.62	0.002151
1826.26	0.001977
1835.9	0.001901
1845.54	0.001591
1855.18	0.001217
1864.83	0.001288
1874.47	0.000368
1884.11	0.000307
1893.75	0.000529
1903.4	0.000566
1913.04	-0.000348
1922.68	-0.002083
1932.32	-0.001243
1941.97	-0.004023
1951.61	-0.003404
1961.25	-0.0051
1970.89	-0.007931
1980.54	-0.00563
1990.18	-0.003248
1999.82	-0.004995
2009.46	-0.005543
2019.11	-0.004861
2028.75	-0.008311
2038.39	-0.005266
2048.03	-0.00283
2057.67	-0.00034
2067.32	-0.000844
2076.96	0.000345
2086.6	0.000703
2096.24	0.000166
2105.89	0.000508
2115.53	0.001767
2125.17	0.000432
2134.81	-0.001745
2144.45	-0.00158
2154.1	-0.004179
2163.74	0.000837
2173.38	-0.000833
2183.02	-0.000583
2192.67	0.002258
2202.31	0.002433
2211.95	0.001984
2221.59	0.001929
2231.24	0.004417
2240.88	0.002669
2250.52	0.001822
2260.16	0.003899
2269.8	0.005265
2279.45	0.00522
2289.09	0.004512
2298.73	0.00596
2308.38	0.005885
2318.02	0.006306
2327.66	0.006864
2337.3	0.006816
2346.94	0.006018
2356.59	0.006556
2366.23	0.006701
2375.87	0.005204
2385.51	0.005004
2395.16	0.004367
2404.8	0.00438
2414.44	0.004725
2424.08	0.005557
2433.72	0.004514
2443.37	0.005304
2453.01	0.00504
2462.65	0.004517
2472.29	0.004745
2481.94	0.004941
2491.58	0.005041
2501.22	0.004281
2510.86	0.005685
2520.51	0.004488
2530.15	0.004369
2539.79	0.005457
2549.43	0.005162
2559.07	0.005414
2568.72	0.005577
2578.36	0.005141
2588	0.006061
2597.64	0.005546
2607.29	0.006355
2616.93	0.0062
2626.57	0.006878
2636.21	0.007188
2645.86	0.006723
2655.5	0.006968
2665.14	0.006641
2674.78	0.006735
2684.43	0.006783
2694.07	0.006226
2703.71	0.006948
2713.35	0.007569
2722.99	0.007129
2732.64	0.007095
2742.28	0.007888
2751.92	0.007743
2761.56	0.007718
2771.21	0.008898
2780.85	0.008027
2790.49	0.008179
2800.13	0.008183
2809.78	0.007834
2819.42	0.008838
2829.06	0.008782
2838.7	0.008454
2848.34	0.008732
2857.99	0.009943
2867.63	0.009468
2877.27	0.009972
2886.91	0.010166
2896.56	0.010284
2906.2	0.010164
2915.84	0.011027
2925.48	0.011301
2935.13	0.012683
2944.77	0.011974
2954.41	0.012943
2964.05	0.012268
2973.7	0.013386
2983.34	0.013778
2992.98	0.014691
3002.62	0.014437
3012.26	0.015114
3021.91	0.015308
3031.55	0.016322
3041.19	0.016627
3050.83	0.017428
3060.48	0.017809
3070.12	0.018799
3079.76	0.019545
3089.4	0.020723
3099.05	0.020582
3108.69	0.022446
3118.33	0.022623
3127.97	0.023315
3137.61	0.025627
3147.26	0.027625
3156.9	0.029233
3166.54	0.030917
3176.18	0.03379
3185.83	0.035547
3195.47	0.037621
3205.11	0.039052
3214.75	0.037928
3224.4	0.03615
3234.04	0.037453
3243.68	0.038232
3253.32	0.038831
3262.97	0.039377
3272.61	0.039562
3282.25	0.037345
3291.89	0.036948
3301.53	0.036896
3311.18	0.037227
3320.82	0.038134
3330.46	0.040973
3340.1	0.044416
3349.75	0.047018
3359.39	0.049495
3369.03	0.049482
3378.67	0.050785
3388.32	0.051574
3397.96	0.051601
3407.6	0.048617
3417.24	0.046286
3426.89	0.044506
3436.53	0.04386
3446.17	0.043525
3455.81	0.044376
3465.45	0.04451
3475.1	0.043945
3484.74	0.043787
3494.38	0.043322
3504.02	0.044697
3513.67	0.046675
3523.31	0.052276
3532.95	0.054444
3542.59	0.04997
3552.24	0.045273
3561.88	0.041875
3571.52	0.040338
3581.16	0.035904
3590.8	0.033111
3600.45	0.031765
3610.09	0.028442
3619.73	0.023086
3629.37	0.02096
3639.02	0.018438
3648.66	0.013973
3658.3	0.013237
3667.94	0.010149
3677.59	0.0126
3687.23	0.009324
3696.87	0.010317
3706.51	0.008976
3716.16	0.008773
3725.8	0.00967
3735.44	0.010018
3745.08	0.00883
3754.72	0.009662
3764.37	0.009534
3774.01	0.00985
3783.65	0.009575
3793.29	0.008316
3802.94	0.010549
3812.58	0.010603
3822.22	0.010737
3831.86	0.010039
3841.51	0.012168
3851.15	0.01283
3860.79	0.010492
3870.43	0.009771
3880.07	0.011811
3889.72	0.008877
3899.36	0.011754
3909	0.012452
3918.64	0.011369
3928.29	0.009972
3937.93	0.011889
3947.57	0.011175
3957.21	0.010652
3966.86	0.012497
3976.5	0.011146
3986.14	0.011682
3995.78	0.011775
