Measurement: Infrared, Infrared Data RAW
Mineral: Microcline
Rruff sample: R040154
Ideal chemistry: KAlSi_3_O_8_
Locality: Mitchell County, North Carolina, USA
Source: University of Arizona Mineral Museum
Description: White cleavage fragment with some perthitic character
Measured chemistry: (K_0.90_Na_0.09_Ba_0.01_)Al_1.00_(Si_2.99_Al_0.01_)_Î£=3_O_8_
x	intensity
399.193	0.147818
408.835	0.217078
418.477	0.252204
428.12	0.179671
437.762	0.146839
447.404	0.113118
457.047	0.064926
466.689	0.070812
476.331	0.040021
485.974	0.025751
495.616	0.024933
505.258	0.029233
514.901	0.039806
524.543	0.067222
534.185	0.126299
543.828	0.089808
553.47	0.083689
563.112	0.123729
572.755	0.151879
582.397	0.151818
592.039	0.124101
601.682	0.097856
611.324	0.059869
620.966	0.033053
630.609	0.031007
640.251	0.050434
649.893	0.070356
659.536	0.030405
669.178	0.021292
678.82	0.021367
688.463	0.024683
698.105	0.032239
707.747	0.048268
717.39	0.084552
727.032	0.111079
736.674	0.068379
746.317	0.046806
755.959	0.054197
765.601	0.087135
775.244	0.081001
784.886	0.040322
794.528	0.024784
804.171	0.018585
813.813	0.018303
823.455	0.018952
833.098	0.021049
842.74	0.02371
852.382	0.027285
862.025	0.031622
871.667	0.037602
881.309	0.044805
890.952	0.052412
900.594	0.0634
910.236	0.077228
919.879	0.095757
929.521	0.119728
939.163	0.150452
948.806	0.188937
958.448	0.233346
968.09	0.280287
977.733	0.326825
987.375	0.362899
997.017	0.376396
1006.66	0.36654
1016.3	0.327607
1025.94	0.283789
1035.59	0.2569
1045.23	0.244145
1054.87	0.216319
1064.51	0.167972
1074.16	0.154536
1083.8	0.151065
1093.44	0.144328
1103.08	0.132264
1112.72	0.136133
1122.37	0.144817
1132.01	0.153584
1141.65	0.135516
1151.3	0.105477
1160.94	0.079914
1170.58	0.057614
1180.22	0.04109
1189.86	0.028383
1199.51	0.019765
1209.15	0.014715
1218.79	0.01151
1228.43	0.009283
1238.08	0.007469
1247.72	0.005977
1257.36	0.005195
1267	0.004455
1276.64	0.003967
1286.29	0.003508
1295.93	0.003287
1305.57	0.002948
1315.21	0.002863
1324.86	0.002991
1334.5	0.002974
1344.14	0.00308
1353.78	0.003119
1363.43	0.002896
1373.07	0.003047
1382.71	0.00305
1392.35	0.003292
1401.99	0.00349
1411.64	0.00376
1421.28	0.004194
1430.92	0.004715
1440.57	0.004722
1450.21	0.004924
1459.85	0.005186
1469.49	0.005032
1479.13	0.004991
1488.78	0.004604
1498.42	0.004117
1508.06	0.003961
1517.7	0.003627
1527.35	0.003477
1536.99	0.00337
1546.63	0.003645
1556.27	0.004053
1565.91	0.004346
1575.56	0.004658
1585.2	0.004649
1594.84	0.005184
1604.48	0.005037
1614.13	0.004698
1623.77	0.004848
1633.41	0.004873
1643.05	0.004674
1652.7	0.00438
1662.34	0.004234
1671.98	0.004301
1681.62	0.004248
1691.27	0.004227
1700.91	0.003978
1710.55	0.003631
1720.19	0.004122
1729.84	0.004121
1739.48	0.00387
1749.12	0.004139
1758.76	0.004345
1768.4	0.00446
1778.05	0.004243
1787.69	0.004419
1797.33	0.003817
1806.97	0.003584
1816.62	0.002877
1826.26	0.003277
1835.9	0.002834
1845.54	0.003391
1855.18	0.00263
1864.83	0.002696
1874.47	0.00248
1884.11	0.001601
1893.75	0.00182
1903.4	0.001231
1913.04	0.000868
1922.68	0.000992
1932.32	-0.00124
1941.97	-0.001808
1951.61	-0.002042
1961.25	-0.002752
1970.89	-0.005504
1980.54	-0.001498
1990.18	-0.004096
1999.82	-0.004841
2009.46	-0.006144
2019.11	-0.006531
2028.75	-0.005968
2038.39	-0.002877
2048.03	-0.001282
2057.67	-0.003256
2067.32	-0.001199
2076.96	0.000426
2086.6	-0.000369
2096.24	-0.000185
2105.89	0.000465
2115.53	0.000551
2125.17	0.000148
2134.81	-0.001675
2144.45	-0.001111
2154.1	-0.005125
2163.74	-0.001238
2173.38	-0.002239
2183.02	0.000332
2192.67	-0.000882
2202.31	0.000861
2211.95	0.000398
2221.59	0.001164
2231.24	0.000643
2240.88	0.002008
2250.52	0.001254
2260.16	0.001736
2269.8	0.002207
2279.45	0.003604
2289.09	0.0041
2298.73	0.004309
2308.38	0.003949
2318.02	0.004798
2327.66	0.004343
2337.3	0.003793
2346.94	0.003699
2356.59	0.003989
2366.23	0.003953
2375.87	0.003972
2385.51	0.004097
2395.16	0.004687
2404.8	0.004647
2414.44	0.004691
2424.08	0.005084
2433.72	0.004623
2443.37	0.005686
2453.01	0.00575
2462.65	0.005975
2472.29	0.005429
2481.94	0.005165
2491.58	0.005034
2501.22	0.005425
2510.86	0.006233
2520.51	0.005504
2530.15	0.005727
2539.79	0.00568
2549.43	0.006177
2559.07	0.005896
2568.72	0.005563
2578.36	0.006267
2588	0.006638
2597.64	0.006732
2607.29	0.006384
2616.93	0.00729
2626.57	0.006311
2636.21	0.006622
2645.86	0.006496
2655.5	0.006111
2665.14	0.006211
2674.78	0.005765
2684.43	0.006149
2694.07	0.006168
2703.71	0.006221
2713.35	0.006279
2722.99	0.006033
2732.64	0.006313
2742.28	0.006187
2751.92	0.006758
2761.56	0.005583
2771.21	0.006444
2780.85	0.00586
2790.49	0.006888
2800.13	0.006549
2809.78	0.006354
2819.42	0.006593
2829.06	0.007069
2838.7	0.006956
2848.34	0.007449
2857.99	0.007493
2867.63	0.006886
2877.27	0.007478
2886.91	0.007301
2896.56	0.007306
2906.2	0.007576
2915.84	0.007192
2925.48	0.007339
2935.13	0.00677
2944.77	0.0072
2954.41	0.007111
2964.05	0.008127
2973.7	0.008193
2983.34	0.007768
2992.98	0.007431
3002.62	0.007301
3012.26	0.007068
3021.91	0.007599
3031.55	0.008019
3041.19	0.00789
3050.83	0.007945
3060.48	0.008316
3070.12	0.007644
3079.76	0.008527
3089.4	0.008562
3099.05	0.009237
3108.69	0.009062
3118.33	0.008407
3127.97	0.008717
3137.61	0.008872
3147.26	0.008549
3156.9	0.009771
3166.54	0.009215
3176.18	0.008522
3185.83	0.009686
3195.47	0.009622
3205.11	0.009454
3214.75	0.009399
3224.4	0.009906
3234.04	0.010711
3243.68	0.009587
3253.32	0.010336
3262.97	0.010479
3272.61	0.010182
3282.25	0.010022
3291.89	0.010438
3301.53	0.009401
3311.18	0.009105
3320.82	0.010358
3330.46	0.009876
3340.1	0.010955
3349.75	0.010369
3359.39	0.009937
3369.03	0.010194
3378.67	0.010378
3388.32	0.010834
3397.96	0.010499
3407.6	0.011041
3417.24	0.009994
3426.89	0.010447
3436.53	0.012451
3446.17	0.011007
3455.81	0.010692
3465.45	0.011388
3475.1	0.009827
3484.74	0.009957
3494.38	0.010013
3504.02	0.008952
3513.67	0.009332
3523.31	0.009845
3532.95	0.011197
3542.59	0.009333
3552.24	0.009916
3561.88	0.010254
3571.52	0.010171
3581.16	0.007803
3590.8	0.010759
3600.45	0.00997
3610.09	0.009764
3619.73	0.00802
3629.37	0.009832
3639.02	0.008007
3648.66	0.008019
3658.3	0.008682
3667.94	0.007555
3677.59	0.007209
3687.23	0.009675
3696.87	0.009426
3706.51	0.009143
3716.16	0.006657
3725.8	0.010173
3735.44	0.008676
3745.08	0.007492
3754.72	0.009357
3764.37	0.007989
3774.01	0.007814
3783.65	0.008013
3793.29	0.00771
3802.94	0.00743
3812.58	0.009632
3822.22	0.008162
3831.86	0.007013
3841.51	0.010173
3851.15	0.009583
3860.79	0.008353
3870.43	0.007422
3880.07	0.009849
3889.72	0.00673
3899.36	0.009086
3909	0.007188
3918.64	0.008889
3928.29	0.009002
3937.93	0.007724
3947.57	0.007959
3957.21	0.008488
3966.86	0.009214
3976.5	0.009788
3986.14	0.007874
3995.78	0.009418
