Measurement: Infrared, Infrared Data RAW
Mineral: Mimetite
Rruff sample: R040123
Ideal chemistry: Pb^2+^_5_(As^5+^O_4_)_3_Cl
Locality: San Pedro Corralitos, Chihuahua, Mexico
Source: University of Arizona Mineral Museum
Description: Yellow botryoidal group
Measured chemistry: Pb_5.00_((As_0.96_P_0.04_)O_4_)_3_Cl_1.00_
x	intensity
399.193	0.270868
408.835	0.260463
418.477	0.205807
428.12	0.144137
437.762	0.094781
447.404	0.057951
457.047	0.037246
466.689	0.028244
476.331	0.022914
485.974	0.021348
495.616	0.02121
505.258	0.0199
514.901	0.021537
524.543	0.024466
534.185	0.03101
543.828	0.045536
553.47	0.045872
563.112	0.050573
572.755	0.056415
582.397	0.051613
592.039	0.055747
601.682	0.066391
611.324	0.078293
620.966	0.091194
630.609	0.105283
640.251	0.121128
649.893	0.139468
659.536	0.158768
669.178	0.180463
678.82	0.204519
688.463	0.230839
698.105	0.259118
707.747	0.291476
717.39	0.323826
727.032	0.357891
736.674	0.397151
746.317	0.435976
755.959	0.477097
765.601	0.50986
775.244	0.503789
784.886	0.420723
794.528	0.341352
804.171	0.318123
813.813	0.289854
823.455	0.233367
833.098	0.163298
842.74	0.112379
852.382	0.072534
862.025	0.047019
871.667	0.031819
881.309	0.02403
890.952	0.01957
900.594	0.017806
910.236	0.017679
919.879	0.021738
929.521	0.019038
939.163	0.024964
948.806	0.040727
958.448	0.049456
968.09	0.039623
977.733	0.039566
987.375	0.042669
997.017	0.041246
1006.66	0.04259
1016.3	0.038757
1025.94	0.032999
1035.59	0.030031
1045.23	0.02788
1054.87	0.024692
1064.51	0.022963
1074.16	0.022273
1083.8	0.023073
1093.44	0.023967
1103.08	0.0249
1112.72	0.025405
1122.37	0.026442
1132.01	0.026934
1141.65	0.027505
1151.3	0.028434
1160.94	0.029427
1170.58	0.030403
1180.22	0.031273
1189.86	0.032147
1199.51	0.03345
1209.15	0.03396
1218.79	0.034764
1228.43	0.035627
1238.08	0.036154
1247.72	0.037239
1257.36	0.038259
1267	0.039304
1276.64	0.040243
1286.29	0.041911
1295.93	0.043449
1305.57	0.045212
1315.21	0.04657
1324.86	0.047477
1334.5	0.048198
1344.14	0.048369
1353.78	0.049176
1363.43	0.049886
1373.07	0.051165
1382.71	0.052552
1392.35	0.053931
1401.99	0.055353
1411.64	0.057374
1421.28	0.058353
1430.92	0.059098
1440.57	0.060343
1450.21	0.060513
1459.85	0.060667
1469.49	0.060803
1479.13	0.061368
1488.78	0.061797
1498.42	0.062869
1508.06	0.063491
1517.7	0.065626
1527.35	0.068011
1536.99	0.069571
1546.63	0.070905
1556.27	0.070903
1565.91	0.071984
1575.56	0.071873
1585.2	0.072254
1594.84	0.072261
1604.48	0.072336
1614.13	0.072077
1623.77	0.072457
1633.41	0.072776
1643.05	0.073255
1652.7	0.07226
1662.34	0.07335
1671.98	0.074226
1681.62	0.074241
1691.27	0.075716
1700.91	0.075271
1710.55	0.076894
1720.19	0.077477
1729.84	0.078446
1739.48	0.078658
1749.12	0.079867
1758.76	0.080548
1768.4	0.081075
1778.05	0.08201
1787.69	0.082502
1797.33	0.083015
1806.97	0.083822
1816.62	0.085363
1826.26	0.085986
1835.9	0.08646
1845.54	0.087582
1855.18	0.088414
1864.83	0.089392
1874.47	0.0903
1884.11	0.091005
1893.75	0.091256
1903.4	0.091672
1913.04	0.092742
1922.68	0.093704
1932.32	0.093944
1941.97	0.094954
1951.61	0.096534
1961.25	0.095428
1970.89	0.097775
1980.54	0.098901
1990.18	0.098835
1999.82	0.099417
2009.46	0.100024
2019.11	0.103059
2028.75	0.103384
2038.39	0.1037
2048.03	0.106354
2057.67	0.102075
2067.32	0.103458
2076.96	0.105297
2086.6	0.104727
2096.24	0.105242
2105.89	0.108845
2115.53	0.108706
2125.17	0.108268
2134.81	0.10872
2144.45	0.107716
2154.1	0.108634
2163.74	0.115228
2173.38	0.112815
2183.02	0.112236
2192.67	0.113534
2202.31	0.114477
2211.95	0.113302
2221.59	0.116166
2231.24	0.115098
2240.88	0.117637
2250.52	0.116937
2260.16	0.118564
2269.8	0.118104
2279.45	0.120127
2289.09	0.119829
2298.73	0.119681
2308.38	0.120367
2318.02	0.120715
2327.66	0.120269
2337.3	0.120423
2346.94	0.121406
2356.59	0.122214
2366.23	0.121289
2375.87	0.122814
2385.51	0.124103
2395.16	0.124975
2404.8	0.125844
2414.44	0.126688
2424.08	0.127262
2433.72	0.127488
2443.37	0.127223
2453.01	0.12912
2462.65	0.128069
2472.29	0.128988
2481.94	0.129761
2491.58	0.129727
2501.22	0.130421
2510.86	0.131683
2520.51	0.131685
2530.15	0.131435
2539.79	0.132861
2549.43	0.133249
2559.07	0.134388
2568.72	0.134872
2578.36	0.135401
2588	0.135339
2597.64	0.136159
2607.29	0.137682
2616.93	0.136989
2626.57	0.137564
2636.21	0.137531
2645.86	0.138624
2655.5	0.139648
2665.14	0.139129
2674.78	0.139825
2684.43	0.140183
2694.07	0.141792
2703.71	0.141126
2713.35	0.141856
2722.99	0.142809
2732.64	0.142972
2742.28	0.14386
2751.92	0.144709
2761.56	0.145484
2771.21	0.145871
2780.85	0.145704
2790.49	0.146333
2800.13	0.147621
2809.78	0.148149
2819.42	0.148737
2829.06	0.149357
2838.7	0.150404
2848.34	0.151236
2857.99	0.152985
2867.63	0.151815
2877.27	0.153305
2886.91	0.15325
2896.56	0.153643
2906.2	0.155889
2915.84	0.15667
2925.48	0.158217
2935.13	0.156649
2944.77	0.156585
2954.41	0.156934
2964.05	0.157875
2973.7	0.157357
2983.34	0.158038
2992.98	0.158273
3002.62	0.159396
3012.26	0.159911
3021.91	0.160426
3031.55	0.160187
3041.19	0.161263
3050.83	0.161026
3060.48	0.16229
3070.12	0.163077
3079.76	0.163863
3089.4	0.164711
3099.05	0.165513
3108.69	0.164904
3118.33	0.166863
3127.97	0.166688
3137.61	0.168509
3147.26	0.167457
3156.9	0.167029
3166.54	0.169853
3176.18	0.169303
3185.83	0.170788
3195.47	0.170174
3205.11	0.171136
3214.75	0.171057
3224.4	0.171022
3234.04	0.174149
3243.68	0.173724
3253.32	0.1736
3262.97	0.173995
3272.61	0.173278
3282.25	0.174913
3291.89	0.174433
3301.53	0.173692
3311.18	0.175929
3320.82	0.177092
3330.46	0.176312
3340.1	0.176205
3349.75	0.177929
3359.39	0.178104
3369.03	0.17799
3378.67	0.177901
3388.32	0.178571
3397.96	0.17903
3407.6	0.179554
3417.24	0.181973
3426.89	0.180415
3436.53	0.182175
3446.17	0.179657
3455.81	0.181762
3465.45	0.182066
3475.1	0.183101
3484.74	0.184722
3494.38	0.185074
3504.02	0.184719
3513.67	0.18416
3523.31	0.182173
3532.95	0.18668
3542.59	0.184741
3552.24	0.186282
3561.88	0.186502
3571.52	0.187218
3581.16	0.187507
3590.8	0.186601
3600.45	0.189734
3610.09	0.188564
3619.73	0.187876
3629.37	0.186973
3639.02	0.190954
3648.66	0.188648
3658.3	0.190325
3667.94	0.191911
3677.59	0.190941
3687.23	0.191673
3696.87	0.196132
3706.51	0.193223
3716.16	0.195128
3725.8	0.196302
3735.44	0.193464
3745.08	0.194933
3754.72	0.195163
3764.37	0.193689
3774.01	0.19631
3783.65	0.19699
3793.29	0.198336
3802.94	0.197371
3812.58	0.198896
3822.22	0.19753
3831.86	0.200707
3841.51	0.199124
3851.15	0.198634
3860.79	0.200439
3870.43	0.199391
3880.07	0.203875
3889.72	0.202386
3899.36	0.201587
3909	0.204329
3918.64	0.200731
3928.29	0.203524
3937.93	0.204281
3947.57	0.206642
3957.21	0.204186
3966.86	0.204975
3976.5	0.206908
3986.14	0.206186
3995.78	0.208451
