Measurement: Infrared, Infrared Data RAW
Mineral: Monticellite
Rruff sample: R040115
Ideal chemistry: CaMgSiO_4_
Locality: Magnet Cove, Arkansas, USA
Source: University of Arizona Mineral Museum
Description: Brown blebs in matrix
Measured chemistry: Ca_0.99_(Mg_0.85_ Fe_0.12_Mn_0.03_)Si_1.00_O_4_
x	intensity
399.193	0.130238
408.835	0.139413
418.477	0.148395
428.12	0.156414
437.762	0.148234
447.404	0.125722
457.047	0.120917
466.689	0.126512
476.331	0.119343
485.974	0.10831
495.616	0.102977
505.258	0.101012
514.901	0.104872
524.543	0.093664
534.185	0.07796
543.828	0.062626
553.47	0.05476
563.112	0.053514
572.755	0.059454
582.397	0.071619
592.039	0.074102
601.682	0.062982
611.324	0.049396
620.966	0.040289
630.609	0.036762
640.251	0.035228
649.893	0.034843
659.536	0.034166
669.178	0.03423
678.82	0.034448
688.463	0.034234
698.105	0.034216
707.747	0.034193
717.39	0.034888
727.032	0.035892
736.674	0.037478
746.317	0.038874
755.959	0.040955
765.601	0.043798
775.244	0.050169
784.886	0.058227
794.528	0.065052
804.171	0.070894
813.813	0.077685
823.455	0.089026
833.098	0.075636
842.74	0.081089
852.382	0.099973
862.025	0.122245
871.667	0.142343
881.309	0.152123
890.952	0.141092
900.594	0.127409
910.236	0.116278
919.879	0.107298
929.521	0.100426
939.163	0.096176
948.806	0.083689
958.448	0.095653
968.09	0.089258
977.733	0.089458
987.375	0.089064
997.017	0.085629
1006.66	0.084313
1016.3	0.086677
1025.94	0.092432
1035.59	0.099753
1045.23	0.107291
1054.87	0.112631
1064.51	0.115996
1074.16	0.116481
1083.8	0.115649
1093.44	0.112357
1103.08	0.100359
1112.72	0.082819
1122.37	0.070482
1132.01	0.064074
1141.65	0.060087
1151.3	0.057687
1160.94	0.055325
1170.58	0.05289
1180.22	0.050048
1189.86	0.047226
1199.51	0.044418
1209.15	0.041137
1218.79	0.037044
1228.43	0.032363
1238.08	0.025842
1247.72	0.018982
1257.36	0.013194
1267	0.01002
1276.64	0.008474
1286.29	0.007763
1295.93	0.007182
1305.57	0.007055
1315.21	0.006474
1324.86	0.006515
1334.5	0.00643
1344.14	0.006102
1353.78	0.006398
1363.43	0.006506
1373.07	0.006884
1382.71	0.00689
1392.35	0.006724
1401.99	0.007242
1411.64	0.008091
1421.28	0.008408
1430.92	0.009071
1440.57	0.009537
1450.21	0.0095
1459.85	0.009073
1469.49	0.009021
1479.13	0.008855
1488.78	0.008081
1498.42	0.007707
1508.06	0.006421
1517.7	0.007335
1527.35	0.007736
1536.99	0.007581
1546.63	0.00828
1556.27	0.007573
1565.91	0.009057
1575.56	0.008252
1585.2	0.010368
1594.84	0.011673
1604.48	0.013897
1614.13	0.016831
1623.77	0.019882
1633.41	0.021244
1643.05	0.02172
1652.7	0.016594
1662.34	0.016875
1671.98	0.014558
1681.62	0.012202
1691.27	0.011373
1700.91	0.008036
1710.55	0.008858
1720.19	0.008116
1729.84	0.008084
1739.48	0.007465
1749.12	0.007673
1758.76	0.007747
1768.4	0.007437
1778.05	0.007773
1787.69	0.007722
1797.33	0.007136
1806.97	0.007363
1816.62	0.007623
1826.26	0.007627
1835.9	0.007784
1845.54	0.007945
1855.18	0.008083
1864.83	0.008714
1874.47	0.007991
1884.11	0.008366
1893.75	0.008614
1903.4	0.008026
1913.04	0.00843
1922.68	0.007995
1932.32	0.007239
1941.97	0.007648
1951.61	0.008084
1961.25	0.005383
1970.89	0.00668
1980.54	0.007323
1990.18	0.008616
1999.82	0.008451
2009.46	0.008003
2019.11	0.008187
2028.75	0.009516
2038.39	0.010314
2048.03	0.010258
2057.67	0.008812
2067.32	0.008702
2076.96	0.009179
2086.6	0.007605
2096.24	0.00831
2105.89	0.010367
2115.53	0.008387
2125.17	0.007278
2134.81	0.006692
2144.45	0.004243
2154.1	0.004614
2163.74	0.006434
2173.38	0.006543
2183.02	0.007152
2192.67	0.00802
2202.31	0.008961
2211.95	0.007637
2221.59	0.008549
2231.24	0.00847
2240.88	0.009957
2250.52	0.010958
2260.16	0.011382
2269.8	0.011573
2279.45	0.012668
2289.09	0.012305
2298.73	0.012213
2308.38	0.011979
2318.02	0.012383
2327.66	0.011795
2337.3	0.011725
2346.94	0.011406
2356.59	0.01175
2366.23	0.010716
2375.87	0.011194
2385.51	0.011234
2395.16	0.010804
2404.8	0.010828
2414.44	0.011328
2424.08	0.01168
2433.72	0.012373
2443.37	0.012143
2453.01	0.012565
2462.65	0.01105
2472.29	0.01232
2481.94	0.012311
2491.58	0.011707
2501.22	0.011785
2510.86	0.013696
2520.51	0.013055
2530.15	0.012873
2539.79	0.012913
2549.43	0.013538
2559.07	0.013197
2568.72	0.014297
2578.36	0.013919
2588	0.014162
2597.64	0.014491
2607.29	0.015275
2616.93	0.014299
2626.57	0.014518
2636.21	0.01431
2645.86	0.01497
2655.5	0.015214
2665.14	0.014032
2674.78	0.01431
2684.43	0.014583
2694.07	0.014919
2703.71	0.014764
2713.35	0.014817
2722.99	0.014859
2732.64	0.014522
2742.28	0.01521
2751.92	0.015137
2761.56	0.015922
2771.21	0.01566
2780.85	0.015987
2790.49	0.015558
2800.13	0.015921
2809.78	0.01648
2819.42	0.01703
2829.06	0.017112
2838.7	0.017437
2848.34	0.017173
2857.99	0.01824
2867.63	0.018611
2877.27	0.01901
2886.91	0.019335
2896.56	0.019436
2906.2	0.02005
2915.84	0.021036
2925.48	0.021622
2935.13	0.02118
2944.77	0.021322
2954.41	0.021832
2964.05	0.022549
2973.7	0.022737
2983.34	0.022839
2992.98	0.023785
3002.62	0.024756
3012.26	0.025541
3021.91	0.025938
3031.55	0.026024
3041.19	0.027469
3050.83	0.027336
3060.48	0.028476
3070.12	0.029746
3079.76	0.032437
3089.4	0.032888
3099.05	0.033931
3108.69	0.03483
3118.33	0.037145
3127.97	0.038736
3137.61	0.0398
3147.26	0.039614
3156.9	0.040855
3166.54	0.043974
3176.18	0.044885
3185.83	0.048197
3195.47	0.049575
3205.11	0.050483
3214.75	0.052596
3224.4	0.053656
3234.04	0.05698
3243.68	0.057705
3253.32	0.058449
3262.97	0.058594
3272.61	0.059277
3282.25	0.061231
3291.89	0.063397
3301.53	0.063744
3311.18	0.065343
3320.82	0.068106
3330.46	0.069036
3340.1	0.06949
3349.75	0.071121
3359.39	0.073129
3369.03	0.071725
3378.67	0.072736
3388.32	0.072927
3397.96	0.071928
3407.6	0.070229
3417.24	0.069815
3426.89	0.067836
3436.53	0.06765
3446.17	0.063588
3455.81	0.062951
3465.45	0.05977
3475.1	0.058034
3484.74	0.056355
3494.38	0.05286
3504.02	0.050219
3513.67	0.048941
3523.31	0.045123
3532.95	0.044894
3542.59	0.042351
3552.24	0.039894
3561.88	0.039067
3571.52	0.036248
3581.16	0.034385
3590.8	0.031096
3600.45	0.030716
3610.09	0.027654
3619.73	0.023986
3629.37	0.019614
3639.02	0.023817
3648.66	0.015836
3658.3	0.018399
3667.94	0.014914
3677.59	0.014992
3687.23	0.01335
3696.87	0.01623
3706.51	0.013915
3716.16	0.013679
3725.8	0.01273
3735.44	0.010458
3745.08	0.00953
3754.72	0.012533
3764.37	0.011715
3774.01	0.013202
3783.65	0.012457
3793.29	0.014088
3802.94	0.011896
3812.58	0.012717
3822.22	0.010506
3831.86	0.013296
3841.51	0.011025
3851.15	0.010205
3860.79	0.012081
3870.43	0.01077
3880.07	0.013802
3889.72	0.014143
3899.36	0.01198
3909	0.012736
3918.64	0.012234
3928.29	0.013914
3937.93	0.01444
3947.57	0.014762
3957.21	0.012152
3966.86	0.013319
3976.5	0.016212
3986.14	0.015037
3995.78	0.015184
