Measurement: Infrared, Infrared Data RAW
Mineral: Papagoite
Rruff sample: R040182
Ideal chemistry: CaCu^2+^AlSi_2_O_6_(OH)_3_
Locality: Ajo, Pima County, Arizona, USA
Source: University of Arizona Mineral Museum
Description: Blue crusty coating
Measured chemistry: Ca_0.97_Cu_1.00_Al_0.98_Si_2.03_O_6_(OH)_3_
x	intensity
399.193	0.24093
408.835	0.259328
418.477	0.247143
428.12	0.325273
437.762	0.344612
447.404	0.295593
457.047	0.226711
466.689	0.202632
476.331	0.206524
485.974	0.184226
495.616	0.135112
505.258	0.151755
514.901	0.222639
524.543	0.251406
534.185	0.227346
543.828	0.178847
553.47	0.144165
563.112	0.10532
572.755	0.07365
582.397	0.070577
592.039	0.068033
601.682	0.065411
611.324	0.067543
620.966	0.074767
630.609	0.089943
640.251	0.107979
649.893	0.102537
659.536	0.079483
669.178	0.093306
678.82	0.126418
688.463	0.17108
698.105	0.172378
707.747	0.160514
717.39	0.166587
727.032	0.111354
736.674	0.083438
746.317	0.110693
755.959	0.09669
765.601	0.071856
775.244	0.061711
784.886	0.059361
794.528	0.063039
804.171	0.065332
813.813	0.073121
823.455	0.0896
833.098	0.104006
842.74	0.11647
852.382	0.096164
862.025	0.078462
871.667	0.075981
881.309	0.069893
890.952	0.066488
900.594	0.079797
910.236	0.101844
919.879	0.133344
929.521	0.179174
939.163	0.251053
948.806	0.350417
958.448	0.400304
968.09	0.345175
977.733	0.316423
987.375	0.282743
997.017	0.255882
1006.66	0.262881
1016.3	0.304205
1025.94	0.326982
1035.59	0.265666
1045.23	0.23781
1054.87	0.222302
1064.51	0.214131
1074.16	0.23605
1083.8	0.260188
1093.44	0.215242
1103.08	0.164909
1112.72	0.125917
1122.37	0.092365
1132.01	0.070427
1141.65	0.059499
1151.3	0.052901
1160.94	0.049731
1170.58	0.043245
1180.22	0.035833
1189.86	0.029676
1199.51	0.024123
1209.15	0.01887
1218.79	0.014231
1228.43	0.011545
1238.08	0.010127
1247.72	0.009299
1257.36	0.008407
1267	0.008132
1276.64	0.008211
1286.29	0.007877
1295.93	0.007661
1305.57	0.007654
1315.21	0.007848
1324.86	0.00797
1334.5	0.008235
1344.14	0.009156
1353.78	0.010326
1363.43	0.011413
1373.07	0.012875
1382.71	0.015081
1392.35	0.018616
1401.99	0.023995
1411.64	0.03421
1421.28	0.033238
1430.92	0.036204
1440.57	0.039985
1450.21	0.044097
1459.85	0.045572
1469.49	0.041245
1479.13	0.039042
1488.78	0.038586
1498.42	0.033018
1508.06	0.02877
1517.7	0.024557
1527.35	0.025997
1536.99	0.023721
1546.63	0.020252
1556.27	0.018091
1565.91	0.01611
1575.56	0.015207
1585.2	0.014277
1594.84	0.013724
1604.48	0.013129
1614.13	0.012361
1623.77	0.011601
1633.41	0.010913
1643.05	0.010696
1652.7	0.010805
1662.34	0.010513
1671.98	0.010042
1681.62	0.009841
1691.27	0.009011
1700.91	0.009316
1710.55	0.008864
1720.19	0.008812
1729.84	0.008788
1739.48	0.009148
1749.12	0.008961
1758.76	0.007743
1768.4	0.007776
1778.05	0.00761
1787.69	0.007893
1797.33	0.008092
1806.97	0.007588
1816.62	0.007564
1826.26	0.007334
1835.9	0.007667
1845.54	0.007682
1855.18	0.007973
1864.83	0.00737
1874.47	0.007419
1884.11	0.006639
1893.75	0.007411
1903.4	0.006472
1913.04	0.005251
1922.68	0.005784
1932.32	0.004947
1941.97	0.005992
1951.61	0.005091
1961.25	0.005113
1970.89	0.004307
1980.54	0.006413
1990.18	0.004763
1999.82	0.003589
2009.46	0.00528
2019.11	0.004734
2028.75	0.004781
2038.39	0.004761
2048.03	0.005496
2057.67	0.005986
2067.32	0.005696
2076.96	0.007162
2086.6	0.006603
2096.24	0.006342
2105.89	0.008191
2115.53	0.007387
2125.17	0.006912
2134.81	0.005018
2144.45	0.004451
2154.1	0.003062
2163.74	0.007096
2173.38	0.006059
2183.02	0.006828
2192.67	0.008797
2202.31	0.008046
2211.95	0.008036
2221.59	0.009164
2231.24	0.00968
2240.88	0.010629
2250.52	0.010616
2260.16	0.012159
2269.8	0.011184
2279.45	0.011547
2289.09	0.011171
2298.73	0.011336
2308.38	0.011388
2318.02	0.012323
2327.66	0.011102
2337.3	0.011412
2346.94	0.01114
2356.59	0.01154
2366.23	0.011584
2375.87	0.010759
2385.51	0.011158
2395.16	0.011563
2404.8	0.011394
2414.44	0.011492
2424.08	0.012304
2433.72	0.011947
2443.37	0.012957
2453.01	0.012904
2462.65	0.012584
2472.29	0.012781
2481.94	0.012791
2491.58	0.013343
2501.22	0.013828
2510.86	0.013898
2520.51	0.014646
2530.15	0.013805
2539.79	0.014161
2549.43	0.014327
2559.07	0.014632
2568.72	0.01492
2578.36	0.014943
2588	0.014346
2597.64	0.014058
2607.29	0.01444
2616.93	0.014211
2626.57	0.014887
2636.21	0.014229
2645.86	0.014128
2655.5	0.014192
2665.14	0.013758
2674.78	0.013923
2684.43	0.013972
2694.07	0.014362
2703.71	0.014108
2713.35	0.014367
2722.99	0.014338
2732.64	0.014366
2742.28	0.014661
2751.92	0.014841
2761.56	0.014901
2771.21	0.01471
2780.85	0.015279
2790.49	0.015544
2800.13	0.01561
2809.78	0.015578
2819.42	0.01613
2829.06	0.016019
2838.7	0.016726
2848.34	0.017324
2857.99	0.018093
2867.63	0.018253
2877.27	0.017696
2886.91	0.017806
2896.56	0.0183
2906.2	0.019242
2915.84	0.02
2925.48	0.021348
2935.13	0.021467
2944.77	0.020009
2954.41	0.020546
2964.05	0.020568
2973.7	0.019175
2983.34	0.018313
2992.98	0.018532
3002.62	0.019285
3012.26	0.018899
3021.91	0.019371
3031.55	0.019562
3041.19	0.020234
3050.83	0.01975
3060.48	0.019837
3070.12	0.020236
3079.76	0.020351
3089.4	0.020473
3099.05	0.021731
3108.69	0.02172
3118.33	0.022217
3127.97	0.023145
3137.61	0.022838
3147.26	0.023108
3156.9	0.023092
3166.54	0.024306
3176.18	0.024222
3185.83	0.025317
3195.47	0.024043
3205.11	0.025488
3214.75	0.025137
3224.4	0.02563
3234.04	0.025516
3243.68	0.026078
3253.32	0.027856
3262.97	0.027779
3272.61	0.026883
3282.25	0.027352
3291.89	0.027745
3301.53	0.028071
3311.18	0.028884
3320.82	0.028984
3330.46	0.029133
3340.1	0.030272
3349.75	0.029855
3359.39	0.029989
3369.03	0.030876
3378.67	0.031687
3388.32	0.032541
3397.96	0.03206
3407.6	0.034351
3417.24	0.035739
3426.89	0.038098
3436.53	0.039499
3446.17	0.04308
3455.81	0.042002
3465.45	0.040483
3475.1	0.037853
3484.74	0.03931
3494.38	0.039148
3504.02	0.042455
3513.67	0.049173
3523.31	0.063858
3532.95	0.089533
3542.59	0.122788
3552.24	0.107187
3561.88	0.051684
3571.52	0.056221
3581.16	0.028447
3590.8	0.024554
3600.45	0.023521
3610.09	0.022622
3619.73	0.022618
3629.37	0.021348
3639.02	0.021014
3648.66	0.020002
3658.3	0.020037
3667.94	0.019942
3677.59	0.020231
3687.23	0.020119
3696.87	0.020113
3706.51	0.02073
3716.16	0.019846
3725.8	0.019322
3735.44	0.019794
3745.08	0.020099
3754.72	0.019309
3764.37	0.020188
3774.01	0.020567
3783.65	0.019505
3793.29	0.019961
3802.94	0.020228
3812.58	0.019377
3822.22	0.020037
3831.86	0.020206
3841.51	0.020151
3851.15	0.020328
3860.79	0.019321
3870.43	0.020114
3880.07	0.020296
3889.72	0.020166
3899.36	0.021221
3909	0.01954
3918.64	0.020488
3928.29	0.021183
3937.93	0.020048
3947.57	0.019384
3957.21	0.020354
3966.86	0.020195
3976.5	0.0202
3986.14	0.021152
3995.78	0.020222
