Measurement: Infrared, Infrared Data RAW
Mineral: Phlogopite
Rruff sample: R040144
Ideal chemistry: KMg_3_(Si_3_Al)O_10_(OH)_2_
Locality: Brinton's Quarry, Chester County, Pennsylvania, USA
Source: University of Arizona Mineral Museum
Description: Dark green mica book
Measured chemistry: (K_0.94_Na_0.04_)(Mg_0.82_Al_0.13_Fe_0.08_)_3_(Si_0.67_Al_0.33_)_4_O_10_((OH)_0.90_F_0.10_)_2_
x	intensity
399.193	0.34058
408.835	0.358843
418.477	0.375878
428.12	0.384726
437.762	0.3812
447.404	0.362987
457.047	0.334096
466.689	0.275936
476.331	0.223245
485.974	0.208905
495.616	0.194234
505.258	0.178514
514.901	0.166839
524.543	0.153627
534.185	0.146917
543.828	0.148887
553.47	0.161292
563.112	0.182742
572.755	0.206804
582.397	0.232101
592.039	0.255651
601.682	0.269677
611.324	0.274649
620.966	0.259778
630.609	0.249742
640.251	0.269196
649.893	0.263079
659.536	0.247418
669.178	0.233018
678.82	0.219517
688.463	0.208018
698.105	0.19868
707.747	0.187033
717.39	0.172856
727.032	0.162854
736.674	0.152546
746.317	0.143163
755.959	0.135542
765.601	0.128933
775.244	0.123856
784.886	0.119575
794.528	0.118077
804.171	0.115919
813.813	0.109513
823.455	0.098939
833.098	0.092596
842.74	0.090281
852.382	0.087753
862.025	0.083696
871.667	0.079796
881.309	0.080817
890.952	0.091862
900.594	0.110284
910.236	0.122496
919.879	0.13358
929.521	0.15484
939.163	0.187421
948.806	0.223281
958.448	0.242658
968.09	0.241305
977.733	0.234947
987.375	0.235761
997.017	0.214357
1006.66	0.16508
1016.3	0.127509
1025.94	0.107996
1035.59	0.091757
1045.23	0.078946
1054.87	0.068753
1064.51	0.05698
1074.16	0.044955
1083.8	0.036757
1093.44	0.029949
1103.08	0.02541
1112.72	0.022299
1122.37	0.020044
1132.01	0.018299
1141.65	0.016684
1151.3	0.015577
1160.94	0.014507
1170.58	0.013167
1180.22	0.012083
1189.86	0.011188
1199.51	0.009947
1209.15	0.009238
1218.79	0.007805
1228.43	0.006723
1238.08	0.00612
1247.72	0.005473
1257.36	0.00518
1267	0.004749
1276.64	0.004744
1286.29	0.004685
1295.93	0.004416
1305.57	0.00428
1315.21	0.004331
1324.86	0.004318
1334.5	0.004119
1344.14	0.004443
1353.78	0.004494
1363.43	0.004848
1373.07	0.005461
1382.71	0.005226
1392.35	0.005169
1401.99	0.005372
1411.64	0.005703
1421.28	0.005592
1430.92	0.005231
1440.57	0.005358
1450.21	0.005803
1459.85	0.005852
1469.49	0.004793
1479.13	0.004282
1488.78	0.004466
1498.42	0.00495
1508.06	0.005582
1517.7	0.005244
1527.35	0.005672
1536.99	0.00629
1546.63	0.006478
1556.27	0.006665
1565.91	0.006416
1575.56	0.00677
1585.2	0.005992
1594.84	0.006155
1604.48	0.006143
1614.13	0.006336
1623.77	0.006575
1633.41	0.006932
1643.05	0.006808
1652.7	0.007995
1662.34	0.006445
1671.98	0.006232
1681.62	0.005974
1691.27	0.005353
1700.91	0.005895
1710.55	0.005077
1720.19	0.005076
1729.84	0.004714
1739.48	0.00508
1749.12	0.004767
1758.76	0.00456
1768.4	0.004543
1778.05	0.004733
1787.69	0.004513
1797.33	0.004241
1806.97	0.004154
1816.62	0.004041
1826.26	0.003724
1835.9	0.003961
1845.54	0.003814
1855.18	0.003932
1864.83	0.003958
1874.47	0.003474
1884.11	0.003661
1893.75	0.003602
1903.4	0.003225
1913.04	0.003095
1922.68	0.00262
1932.32	0.003197
1941.97	0.0005
1951.61	0.001214
1961.25	0.000846
1970.89	-0.001833
1980.54	0.000841
1990.18	0.002992
1999.82	0.001528
2009.46	0.001538
2019.11	0.001963
2028.75	-0.000286
2038.39	0.002811
2048.03	0.003716
2057.67	0.00605
2067.32	0.004624
2076.96	0.005974
2086.6	0.006591
2096.24	0.005264
2105.89	0.005669
2115.53	0.00703
2125.17	0.00706
2134.81	0.005534
2144.45	0.004695
2154.1	0.005182
2163.74	0.008491
2173.38	0.005962
2183.02	0.007376
2192.67	0.009274
2202.31	0.009486
2211.95	0.009074
2221.59	0.009457
2231.24	0.010663
2240.88	0.00932
2250.52	0.00875
2260.16	0.009321
2269.8	0.009249
2279.45	0.009768
2289.09	0.009048
2298.73	0.010345
2308.38	0.010783
2318.02	0.01167
2327.66	0.012029
2337.3	0.01226
2346.94	0.010773
2356.59	0.012326
2366.23	0.01223
2375.87	0.010342
2385.51	0.009872
2395.16	0.009236
2404.8	0.009101
2414.44	0.009484
2424.08	0.010003
2433.72	0.010052
2443.37	0.01048
2453.01	0.010828
2462.65	0.009973
2472.29	0.01055
2481.94	0.010866
2491.58	0.010931
2501.22	0.010413
2510.86	0.011833
2520.51	0.011375
2530.15	0.010865
2539.79	0.011671
2549.43	0.011972
2559.07	0.011192
2568.72	0.012318
2578.36	0.012242
2588	0.01169
2597.64	0.01179
2607.29	0.012596
2616.93	0.012541
2626.57	0.013147
2636.21	0.013368
2645.86	0.01315
2655.5	0.013386
2665.14	0.012989
2674.78	0.013015
2684.43	0.012973
2694.07	0.012913
2703.71	0.013751
2713.35	0.01438
2722.99	0.013251
2732.64	0.014209
2742.28	0.01447
2751.92	0.015109
2761.56	0.014751
2771.21	0.016008
2780.85	0.015252
2790.49	0.015356
2800.13	0.015703
2809.78	0.014997
2819.42	0.016159
2829.06	0.017369
2838.7	0.017841
2848.34	0.018239
2857.99	0.019701
2867.63	0.019382
2877.27	0.019442
2886.91	0.020028
2896.56	0.02012
2906.2	0.020879
2915.84	0.023605
2925.48	0.023957
2935.13	0.023333
2944.77	0.021658
2954.41	0.02321
2964.05	0.021308
2973.7	0.020672
2983.34	0.019719
2992.98	0.020863
3002.62	0.020002
3012.26	0.020706
3021.91	0.020802
3031.55	0.021485
3041.19	0.022114
3050.83	0.022103
3060.48	0.022122
3070.12	0.023263
3079.76	0.023229
3089.4	0.024643
3099.05	0.023502
3108.69	0.024701
3118.33	0.024771
3127.97	0.025293
3137.61	0.026323
3147.26	0.026784
3156.9	0.026574
3166.54	0.027472
3176.18	0.027793
3185.83	0.028126
3195.47	0.028153
3205.11	0.02918
3214.75	0.029684
3224.4	0.028279
3234.04	0.030228
3243.68	0.030523
3253.32	0.030415
3262.97	0.031902
3272.61	0.031381
3282.25	0.031967
3291.89	0.032384
3301.53	0.032741
3311.18	0.032641
3320.82	0.033026
3330.46	0.033832
3340.1	0.034597
3349.75	0.034026
3359.39	0.034463
3369.03	0.033371
3378.67	0.035988
3388.32	0.035821
3397.96	0.036492
3407.6	0.036434
3417.24	0.036991
3426.89	0.036522
3436.53	0.03656
3446.17	0.03768
3455.81	0.036428
3465.45	0.036088
3475.1	0.036432
3484.74	0.036135
3494.38	0.037113
3504.02	0.036179
3513.67	0.034696
3523.31	0.035841
3532.95	0.035259
3542.59	0.034664
3552.24	0.034869
3561.88	0.034036
3571.52	0.035606
3581.16	0.033873
3590.8	0.032071
3600.45	0.033409
3610.09	0.031946
3619.73	0.030645
3629.37	0.031794
3639.02	0.032535
3648.66	0.031823
3658.3	0.032409
3667.94	0.030284
3677.59	0.030898
3687.23	0.02914
3696.87	0.030347
3706.51	0.030931
3716.16	0.026612
3725.8	0.025148
3735.44	0.025893
3745.08	0.023317
3754.72	0.024988
3764.37	0.025725
3774.01	0.026588
3783.65	0.025786
3793.29	0.023573
3802.94	0.025921
3812.58	0.025214
3822.22	0.027887
3831.86	0.025265
3841.51	0.0269
3851.15	0.028698
3860.79	0.02602
3870.43	0.026687
3880.07	0.028408
3889.72	0.026015
3899.36	0.027425
3909	0.02713
3918.64	0.027063
3928.29	0.025475
3937.93	0.028281
3947.57	0.028171
3957.21	0.027259
3966.86	0.028368
3976.5	0.027876
3986.14	0.028871
3995.78	0.028153
