Measurement: Infrared, Infrared Data RAW
Mineral: Scheelite
Rruff sample: R040173
Ideal chemistry: CaW^6+^O_4_
Locality: Santa Cruz, Sonora, Mexico
Source: University of Arizona Mineral Museum
Description: Yellow crystal fragments
Measured chemistry: Ca_1.00_W_1.00_O_4_
x	intensity
399.193	0.014551
408.835	0.024674
418.477	0.039295
428.12	0.082738
437.762	0.143764
447.404	0.077385
457.047	0.037764
466.689	0.02997
476.331	0.02756
485.974	0.02795
495.616	0.029262
505.258	0.033495
514.901	0.038288
524.543	0.045505
534.185	0.053659
543.828	0.062737
553.47	0.073488
563.112	0.084565
572.755	0.096751
582.397	0.109155
592.039	0.121727
601.682	0.136955
611.324	0.152307
620.966	0.168954
630.609	0.188043
640.251	0.208992
649.893	0.23052
659.536	0.253604
669.178	0.277625
678.82	0.303939
688.463	0.333177
698.105	0.364589
707.747	0.396487
717.39	0.427095
727.032	0.457398
736.674	0.490445
746.317	0.522893
755.959	0.552592
765.601	0.576635
775.244	0.585985
784.886	0.548336
794.528	0.466911
804.171	0.389807
813.813	0.318448
823.455	0.260901
833.098	0.219066
842.74	0.182633
852.382	0.147963
862.025	0.116271
871.667	0.086554
881.309	0.057663
890.952	0.026941
900.594	0.011544
910.236	0.007763
919.879	0.007356
929.521	0.005714
939.163	0.00487
948.806	0.004286
958.448	0.0046
968.09	0.005124
977.733	0.005507
987.375	0.005586
997.017	0.005831
1006.66	0.006293
1016.3	0.006765
1025.94	0.007278
1035.59	0.007545
1045.23	0.007912
1054.87	0.007348
1064.51	0.007602
1074.16	0.008289
1083.8	0.008456
1093.44	0.009089
1103.08	0.009554
1112.72	0.009882
1122.37	0.009859
1132.01	0.009952
1141.65	0.010035
1151.3	0.010356
1160.94	0.010568
1170.58	0.010769
1180.22	0.011062
1189.86	0.011444
1199.51	0.011968
1209.15	0.012283
1218.79	0.012846
1228.43	0.012893
1238.08	0.013482
1247.72	0.013718
1257.36	0.014243
1267	0.014595
1276.64	0.015074
1286.29	0.015476
1295.93	0.016128
1305.57	0.016275
1315.21	0.016581
1324.86	0.01711
1334.5	0.017588
1344.14	0.018367
1353.78	0.019158
1363.43	0.019144
1373.07	0.020183
1382.71	0.020651
1392.35	0.02097
1401.99	0.021948
1411.64	0.022792
1421.28	0.024257
1430.92	0.02521
1440.57	0.026316
1450.21	0.027728
1459.85	0.028012
1469.49	0.027698
1479.13	0.0268
1488.78	0.026197
1498.42	0.025942
1508.06	0.026598
1517.7	0.026829
1527.35	0.027257
1536.99	0.02873
1546.63	0.029831
1556.27	0.030843
1565.91	0.031285
1575.56	0.032017
1585.2	0.033051
1594.84	0.033395
1604.48	0.033405
1614.13	0.03314
1623.77	0.033749
1633.41	0.034048
1643.05	0.033749
1652.7	0.034367
1662.34	0.034949
1671.98	0.035368
1681.62	0.035477
1691.27	0.036029
1700.91	0.036649
1710.55	0.036716
1720.19	0.035934
1729.84	0.035121
1739.48	0.034474
1749.12	0.034764
1758.76	0.035036
1768.4	0.035223
1778.05	0.035591
1787.69	0.036105
1797.33	0.037453
1806.97	0.036776
1816.62	0.035572
1826.26	0.036189
1835.9	0.036636
1845.54	0.037413
1855.18	0.037713
1864.83	0.037885
1874.47	0.038233
1884.11	0.03854
1893.75	0.039012
1903.4	0.039686
1913.04	0.038914
1922.68	0.039336
1932.32	0.039639
1941.97	0.040219
1951.61	0.040203
1961.25	0.038925
1970.89	0.040197
1980.54	0.042734
1990.18	0.04153
1999.82	0.042035
2009.46	0.041449
2019.11	0.040368
2028.75	0.041349
2038.39	0.044051
2048.03	0.045289
2057.67	0.044923
2067.32	0.046254
2076.96	0.047175
2086.6	0.04689
2096.24	0.04665
2105.89	0.047183
2115.53	0.048494
2125.17	0.046889
2134.81	0.046886
2144.45	0.047241
2154.1	0.045858
2163.74	0.05071
2173.38	0.050303
2183.02	0.051185
2192.67	0.049099
2202.31	0.049603
2211.95	0.051858
2221.59	0.051605
2231.24	0.051178
2240.88	0.052339
2250.52	0.053735
2260.16	0.054606
2269.8	0.053876
2279.45	0.054063
2289.09	0.055951
2298.73	0.054864
2308.38	0.056071
2318.02	0.056686
2327.66	0.056267
2337.3	0.055663
2346.94	0.056708
2356.59	0.057149
2366.23	0.056977
2375.87	0.056126
2385.51	0.057151
2395.16	0.057127
2404.8	0.057571
2414.44	0.058204
2424.08	0.058364
2433.72	0.058176
2443.37	0.059899
2453.01	0.058995
2462.65	0.05946
2472.29	0.059696
2481.94	0.060369
2491.58	0.060761
2501.22	0.060758
2510.86	0.061208
2520.51	0.062712
2530.15	0.062154
2539.79	0.062161
2549.43	0.06159
2559.07	0.063611
2568.72	0.063939
2578.36	0.062994
2588	0.063306
2597.64	0.064798
2607.29	0.065434
2616.93	0.065446
2626.57	0.066584
2636.21	0.06634
2645.86	0.066505
2655.5	0.067264
2665.14	0.066644
2674.78	0.066671
2684.43	0.066642
2694.07	0.067155
2703.71	0.067924
2713.35	0.068027
2722.99	0.068116
2732.64	0.068504
2742.28	0.068838
2751.92	0.069108
2761.56	0.068995
2771.21	0.07027
2780.85	0.069469
2790.49	0.071291
2800.13	0.070758
2809.78	0.072202
2819.42	0.071519
2829.06	0.072385
2838.7	0.073162
2848.34	0.073879
2857.99	0.075133
2867.63	0.07493
2877.27	0.073968
2886.91	0.075342
2896.56	0.076397
2906.2	0.076647
2915.84	0.077977
2925.48	0.079385
2935.13	0.078428
2944.77	0.077923
2954.41	0.078167
2964.05	0.078771
2973.7	0.076733
2983.34	0.0771
2992.98	0.076571
3002.62	0.078557
3012.26	0.077684
3021.91	0.07875
3031.55	0.077897
3041.19	0.078458
3050.83	0.079515
3060.48	0.079655
3070.12	0.079977
3079.76	0.081495
3089.4	0.081088
3099.05	0.082175
3108.69	0.081313
3118.33	0.082478
3127.97	0.084033
3137.61	0.082802
3147.26	0.084097
3156.9	0.084324
3166.54	0.083057
3176.18	0.085364
3185.83	0.084999
3195.47	0.086387
3205.11	0.087472
3214.75	0.087573
3224.4	0.086219
3234.04	0.087996
3243.68	0.089068
3253.32	0.087042
3262.97	0.087835
3272.61	0.089875
3282.25	0.089181
3291.89	0.089477
3301.53	0.089892
3311.18	0.088937
3320.82	0.090471
3330.46	0.090175
3340.1	0.090691
3349.75	0.09022
3359.39	0.093322
3369.03	0.091139
3378.67	0.09169
3388.32	0.091963
3397.96	0.092677
3407.6	0.09294
3417.24	0.092848
3426.89	0.09253
3436.53	0.091835
3446.17	0.091662
3455.81	0.091709
3465.45	0.092274
3475.1	0.092316
3484.74	0.092368
3494.38	0.092277
3504.02	0.094863
3513.67	0.09338
3523.31	0.093627
3532.95	0.093092
3542.59	0.092574
3552.24	0.091724
3561.88	0.094175
3571.52	0.092863
3581.16	0.09328
3590.8	0.091065
3600.45	0.093884
3610.09	0.091494
3619.73	0.093408
3629.37	0.094694
3639.02	0.091586
3648.66	0.092599
3658.3	0.092751
3667.94	0.092174
3677.59	0.096355
3687.23	0.093781
3696.87	0.093191
3706.51	0.095852
3716.16	0.092421
3725.8	0.096216
3735.44	0.094734
3745.08	0.09472
3754.72	0.096732
3764.37	0.095939
3774.01	0.096832
3783.65	0.096317
3793.29	0.098227
3802.94	0.096739
3812.58	0.099252
3822.22	0.098916
3831.86	0.098201
3841.51	0.097476
3851.15	0.099064
3860.79	0.100835
3870.43	0.097836
3880.07	0.100029
3889.72	0.098834
3899.36	0.10006
3909	0.100799
3918.64	0.097973
3928.29	0.100817
3937.93	0.099958
3947.57	0.100364
3957.21	0.102757
3966.86	0.100861
3976.5	0.101074
3986.14	0.102113
3995.78	0.10298
