Measurement: Infrared, Infrared Data RAW
Mineral: Scheelite
Rruff sample: R040172
Ideal chemistry: CaW^6+^O_4_
Locality: Sonora, Mexico
Source: University of Arizona Mineral Museum
Description: Colorless water worn single crystal
Measured chemistry: Ca_1.01_W_1.00_O_4_
x	intensity
399.193	0.018884
408.835	0.028203
418.477	0.042519
428.12	0.088927
437.762	0.148153
447.404	0.079221
457.047	0.038893
466.689	0.029734
476.331	0.027835
485.974	0.02833
495.616	0.029493
505.258	0.033553
514.901	0.038744
524.543	0.045979
534.185	0.054803
543.828	0.06558
553.47	0.077766
563.112	0.090555
572.755	0.105095
582.397	0.11988
592.039	0.13408
601.682	0.152035
611.324	0.169643
620.966	0.189036
630.609	0.208686
640.251	0.230074
649.893	0.250441
659.536	0.271436
669.178	0.294492
678.82	0.318155
688.463	0.341753
698.105	0.369832
707.747	0.396798
717.39	0.424529
727.032	0.450741
736.674	0.478631
746.317	0.508197
755.959	0.532621
765.601	0.551941
775.244	0.55962
784.886	0.522764
794.528	0.441722
804.171	0.367537
813.813	0.303294
823.455	0.250658
833.098	0.211144
842.74	0.176868
852.382	0.143709
862.025	0.11293
871.667	0.08392
881.309	0.055882
890.952	0.026032
900.594	0.011779
910.236	0.008145
919.879	0.007657
929.521	0.005933
939.163	0.0054
948.806	0.004941
958.448	0.005067
968.09	0.005619
977.733	0.006122
987.375	0.0062
997.017	0.006239
1006.66	0.006229
1016.3	0.006543
1025.94	0.007072
1035.59	0.006842
1045.23	0.007154
1054.87	0.007263
1064.51	0.007547
1074.16	0.007598
1083.8	0.00802
1093.44	0.008377
1103.08	0.008743
1112.72	0.009208
1122.37	0.00928
1132.01	0.009347
1141.65	0.009875
1151.3	0.010069
1160.94	0.010434
1170.58	0.010558
1180.22	0.010935
1189.86	0.011126
1199.51	0.011337
1209.15	0.0118
1218.79	0.012183
1228.43	0.012321
1238.08	0.012672
1247.72	0.01314
1257.36	0.013529
1267	0.013865
1276.64	0.014404
1286.29	0.014837
1295.93	0.015316
1305.57	0.015674
1315.21	0.01615
1324.86	0.016713
1334.5	0.017047
1344.14	0.01789
1353.78	0.018568
1363.43	0.018933
1373.07	0.019656
1382.71	0.020405
1392.35	0.020968
1401.99	0.022623
1411.64	0.024122
1421.28	0.02606
1430.92	0.027662
1440.57	0.028821
1450.21	0.030136
1459.85	0.030339
1469.49	0.029792
1479.13	0.027908
1488.78	0.026875
1498.42	0.026437
1508.06	0.026272
1517.7	0.026627
1527.35	0.026994
1536.99	0.028994
1546.63	0.030447
1556.27	0.030792
1565.91	0.031209
1575.56	0.032116
1585.2	0.032421
1594.84	0.032344
1604.48	0.032257
1614.13	0.031955
1623.77	0.03221
1633.41	0.032317
1643.05	0.031986
1652.7	0.032619
1662.34	0.033109
1671.98	0.033766
1681.62	0.033548
1691.27	0.034414
1700.91	0.035252
1710.55	0.035358
1720.19	0.034613
1729.84	0.034095
1739.48	0.033458
1749.12	0.033471
1758.76	0.032875
1768.4	0.03321
1778.05	0.033556
1787.69	0.034439
1797.33	0.035952
1806.97	0.03447
1816.62	0.033765
1826.26	0.034127
1835.9	0.034987
1845.54	0.035053
1855.18	0.036146
1864.83	0.035807
1874.47	0.036512
1884.11	0.03712
1893.75	0.037209
1903.4	0.037727
1913.04	0.037197
1922.68	0.037978
1932.32	0.037205
1941.97	0.038607
1951.61	0.03943
1961.25	0.037828
1970.89	0.040248
1980.54	0.042083
1990.18	0.04028
1999.82	0.040431
2009.46	0.040568
2019.11	0.039472
2028.75	0.042127
2038.39	0.042446
2048.03	0.041071
2057.67	0.043917
2067.32	0.043772
2076.96	0.044263
2086.6	0.04561
2096.24	0.045175
2105.89	0.045387
2115.53	0.046081
2125.17	0.044774
2134.81	0.04534
2144.45	0.045239
2154.1	0.043361
2163.74	0.048236
2173.38	0.047407
2183.02	0.048605
2192.67	0.047443
2202.31	0.049217
2211.95	0.048546
2221.59	0.04871
2231.24	0.048848
2240.88	0.049055
2250.52	0.050677
2260.16	0.051388
2269.8	0.051688
2279.45	0.051382
2289.09	0.052601
2298.73	0.05154
2308.38	0.053444
2318.02	0.053689
2327.66	0.053134
2337.3	0.053242
2346.94	0.053669
2356.59	0.05401
2366.23	0.054028
2375.87	0.052799
2385.51	0.052724
2395.16	0.053589
2404.8	0.054559
2414.44	0.05363
2424.08	0.054659
2433.72	0.054135
2443.37	0.056916
2453.01	0.05566
2462.65	0.056156
2472.29	0.056161
2481.94	0.05685
2491.58	0.057078
2501.22	0.056955
2510.86	0.056972
2520.51	0.057958
2530.15	0.058475
2539.79	0.058545
2549.43	0.058593
2559.07	0.059576
2568.72	0.060627
2578.36	0.059159
2588	0.059989
2597.64	0.061341
2607.29	0.062051
2616.93	0.061603
2626.57	0.062485
2636.21	0.062805
2645.86	0.062628
2655.5	0.06273
2665.14	0.062736
2674.78	0.062644
2684.43	0.063173
2694.07	0.063041
2703.71	0.064291
2713.35	0.063377
2722.99	0.063938
2732.64	0.064459
2742.28	0.06481
2751.92	0.06492
2761.56	0.064911
2771.21	0.064778
2780.85	0.065782
2790.49	0.067028
2800.13	0.065657
2809.78	0.067381
2819.42	0.067474
2829.06	0.068288
2838.7	0.069764
2848.34	0.070078
2857.99	0.070868
2867.63	0.070738
2877.27	0.070387
2886.91	0.070644
2896.56	0.071328
2906.2	0.072602
2915.84	0.073946
2925.48	0.075387
2935.13	0.075273
2944.77	0.073953
2954.41	0.074056
2964.05	0.073523
2973.7	0.072919
2983.34	0.072064
2992.98	0.071861
3002.62	0.073148
3012.26	0.073
3021.91	0.073721
3031.55	0.073627
3041.19	0.073755
3050.83	0.075241
3060.48	0.075107
3070.12	0.074952
3079.76	0.077224
3089.4	0.075522
3099.05	0.077041
3108.69	0.076106
3118.33	0.077953
3127.97	0.07778
3137.61	0.077803
3147.26	0.079726
3156.9	0.079671
3166.54	0.078537
3176.18	0.080642
3185.83	0.078614
3195.47	0.080575
3205.11	0.082407
3214.75	0.081204
3224.4	0.080689
3234.04	0.081797
3243.68	0.083403
3253.32	0.082613
3262.97	0.082773
3272.61	0.08426
3282.25	0.084482
3291.89	0.084286
3301.53	0.085323
3311.18	0.084535
3320.82	0.085737
3330.46	0.085583
3340.1	0.084903
3349.75	0.084792
3359.39	0.086321
3369.03	0.086572
3378.67	0.08569
3388.32	0.086052
3397.96	0.085954
3407.6	0.087194
3417.24	0.085923
3426.89	0.085503
3436.53	0.08601
3446.17	0.085799
3455.81	0.086275
3465.45	0.08776
3475.1	0.087296
3484.74	0.085904
3494.38	0.086835
3504.02	0.087936
3513.67	0.086929
3523.31	0.087963
3532.95	0.088002
3542.59	0.085279
3552.24	0.085371
3561.88	0.086758
3571.52	0.085988
3581.16	0.08555
3590.8	0.086377
3600.45	0.088107
3610.09	0.08526
3619.73	0.085928
3629.37	0.086092
3639.02	0.085539
3648.66	0.087894
3658.3	0.086058
3667.94	0.085289
3677.59	0.088861
3687.23	0.086071
3696.87	0.085823
3706.51	0.088795
3716.16	0.087996
3725.8	0.087981
3735.44	0.08833
3745.08	0.089962
3754.72	0.090067
3764.37	0.09005
3774.01	0.090657
3783.65	0.090083
3793.29	0.091204
3802.94	0.088695
3812.58	0.090897
3822.22	0.092705
3831.86	0.090853
3841.51	0.090132
3851.15	0.091318
3860.79	0.093854
3870.43	0.090813
3880.07	0.09158
3889.72	0.092214
3899.36	0.093059
3909	0.09401
3918.64	0.092234
3928.29	0.092081
3937.93	0.093246
3947.57	0.092906
3957.21	0.094671
3966.86	0.092741
3976.5	0.093015
3986.14	0.093912
3995.78	0.094656
