Measurement: Infrared, Infrared Data RAW
Mineral: Talc
Rruff sample: R040137
Ideal chemistry: Mg_3_Si_4_O_10_(OH)_2_
Locality: Murphy, North Carolina, USA
Source: University of Arizona Mineral Museum
Description: Colorless massive
Measured chemistry: (Mg_0.97_Fe_0.01_Al_0.01_)_3_Si_4.03_O_10_((OH)_0.99_F_0.01_)_2_
x	intensity
399.193	0.4002
408.835	0.497185
418.477	0.462713
428.12	0.328906
437.762	0.271151
447.404	0.29487
457.047	0.282792
466.689	0.195782
476.331	0.150576
485.974	0.129477
495.616	0.120906
505.258	0.154605
514.901	0.116857
524.543	0.077348
534.185	0.056261
543.828	0.06304
553.47	0.065392
563.112	0.054995
572.755	0.03336
582.397	0.022399
592.039	0.021077
601.682	0.020834
611.324	0.022399
620.966	0.024735
630.609	0.031326
640.251	0.044469
649.893	0.094798
659.536	0.255957
669.178	0.391281
678.82	0.268422
688.463	0.124698
698.105	0.052258
707.747	0.035938
717.39	0.02889
727.032	0.027254
736.674	0.028786
746.317	0.030866
755.959	0.03603
765.601	0.04356
775.244	0.056622
784.886	0.068959
794.528	0.073728
804.171	0.083166
813.813	0.097781
823.455	0.116039
833.098	0.139883
842.74	0.166853
852.382	0.205351
862.025	0.247895
871.667	0.295005
881.309	0.356393
890.952	0.430039
900.594	0.515235
910.236	0.60402
919.879	0.689646
929.521	0.771943
939.163	0.839712
948.806	0.87313
958.448	0.892465
968.09	0.900056
977.733	0.888423
987.375	0.853842
997.017	0.796033
1006.66	0.701286
1016.3	0.517448
1025.94	0.3135
1035.59	0.201101
1045.23	0.137258
1054.87	0.128613
1064.51	0.134726
1074.16	0.129339
1083.8	0.121825
1093.44	0.114109
1103.08	0.104073
1112.72	0.0921
1122.37	0.079907
1132.01	0.065015
1141.65	0.045729
1151.3	0.025655
1160.94	0.015496
1170.58	0.011124
1180.22	0.009595
1189.86	0.008157
1199.51	0.00751
1209.15	0.007453
1218.79	0.006852
1228.43	0.006103
1238.08	0.005958
1247.72	0.005672
1257.36	0.00554
1267	0.00498
1276.64	0.00525
1286.29	0.005878
1295.93	0.006678
1305.57	0.006488
1315.21	0.006102
1324.86	0.005715
1334.5	0.004992
1344.14	0.005123
1353.78	0.005194
1363.43	0.00517
1373.07	0.00517
1382.71	0.005559
1392.35	0.005797
1401.99	0.00552
1411.64	0.005465
1421.28	0.005354
1430.92	0.005238
1440.57	0.005232
1450.21	0.004899
1459.85	0.005174
1469.49	0.004568
1479.13	0.004184
1488.78	0.00391
1498.42	0.004154
1508.06	0.004849
1517.7	0.00438
1527.35	0.004634
1536.99	0.004694
1546.63	0.004808
1556.27	0.005149
1565.91	0.005132
1575.56	0.005724
1585.2	0.005637
1594.84	0.005964
1604.48	0.006336
1614.13	0.006578
1623.77	0.007139
1633.41	0.008574
1643.05	0.010262
1652.7	0.011593
1662.34	0.011354
1671.98	0.012298
1681.62	0.010456
1691.27	0.008337
1700.91	0.009315
1710.55	0.00994
1720.19	0.008705
1729.84	0.00794
1739.48	0.008127
1749.12	0.008347
1758.76	0.008757
1768.4	0.008847
1778.05	0.008583
1787.69	0.008862
1797.33	0.009547
1806.97	0.010428
1816.62	0.010619
1826.26	0.010411
1835.9	0.00948
1845.54	0.008206
1855.18	0.008218
1864.83	0.008375
1874.47	0.007486
1884.11	0.006566
1893.75	0.006596
1903.4	0.006591
1913.04	0.006353
1922.68	0.005683
1932.32	0.005559
1941.97	0.001996
1951.61	0.002201
1961.25	-0.001478
1970.89	-0.003589
1980.54	-0.00278
1990.18	-0.000366
1999.82	-0.002467
2009.46	-0.004495
2019.11	-0.003463
2028.75	-0.004798
2038.39	-0.001402
2048.03	0.000853
2057.67	0.003625
2067.32	0.003371
2076.96	0.006053
2086.6	0.006256
2096.24	0.005542
2105.89	0.006464
2115.53	0.007684
2125.17	0.006341
2134.81	0.003615
2144.45	0.002228
2154.1	0.000692
2163.74	0.004427
2173.38	0.003098
2183.02	0.004058
2192.67	0.006257
2202.31	0.007526
2211.95	0.006473
2221.59	0.007715
2231.24	0.008936
2240.88	0.008295
2250.52	0.006806
2260.16	0.009192
2269.8	0.011628
2279.45	0.010745
2289.09	0.011049
2298.73	0.012892
2308.38	0.01329
2318.02	0.013629
2327.66	0.01396
2337.3	0.01415
2346.94	0.013516
2356.59	0.014304
2366.23	0.013797
2375.87	0.013095
2385.51	0.012776
2395.16	0.012444
2404.8	0.011926
2414.44	0.01284
2424.08	0.013446
2433.72	0.012341
2443.37	0.01366
2453.01	0.013709
2462.65	0.013116
2472.29	0.014256
2481.94	0.01419
2491.58	0.013746
2501.22	0.013821
2510.86	0.014603
2520.51	0.013839
2530.15	0.013319
2539.79	0.014206
2549.43	0.014439
2559.07	0.013822
2568.72	0.015038
2578.36	0.014525
2588	0.014818
2597.64	0.014682
2607.29	0.015717
2616.93	0.015346
2626.57	0.016411
2636.21	0.016218
2645.86	0.016128
2655.5	0.016497
2665.14	0.016327
2674.78	0.016279
2684.43	0.016066
2694.07	0.016038
2703.71	0.01664
2713.35	0.016818
2722.99	0.016569
2732.64	0.016508
2742.28	0.017302
2751.92	0.017391
2761.56	0.016999
2771.21	0.018169
2780.85	0.017596
2790.49	0.017197
2800.13	0.017908
2809.78	0.017438
2819.42	0.017706
2829.06	0.018152
2838.7	0.017859
2848.34	0.017989
2857.99	0.019455
2867.63	0.018558
2877.27	0.018914
2886.91	0.019243
2896.56	0.018873
2906.2	0.018665
2915.84	0.020027
2925.48	0.019964
2935.13	0.021027
2944.77	0.019587
2954.41	0.020157
2964.05	0.020734
2973.7	0.020982
2983.34	0.02071
2992.98	0.020688
3002.62	0.020225
3012.26	0.021095
3021.91	0.02041
3031.55	0.020876
3041.19	0.02065
3050.83	0.021233
3060.48	0.021151
3070.12	0.02083
3079.76	0.020969
3089.4	0.021735
3099.05	0.021658
3108.69	0.022336
3118.33	0.022266
3127.97	0.022538
3137.61	0.022911
3147.26	0.02382
3156.9	0.023766
3166.54	0.023565
3176.18	0.023298
3185.83	0.023431
3195.47	0.0243
3205.11	0.025157
3214.75	0.023671
3224.4	0.023147
3234.04	0.024002
3243.68	0.024407
3253.32	0.024168
3262.97	0.024912
3272.61	0.024791
3282.25	0.024923
3291.89	0.025338
3301.53	0.024632
3311.18	0.025248
3320.82	0.025565
3330.46	0.024915
3340.1	0.026558
3349.75	0.025197
3359.39	0.025812
3369.03	0.024062
3378.67	0.026389
3388.32	0.026372
3397.96	0.026763
3407.6	0.026692
3417.24	0.026496
3426.89	0.026656
3436.53	0.026078
3446.17	0.027285
3455.81	0.027283
3465.45	0.026832
3475.1	0.027773
3484.74	0.028142
3494.38	0.028295
3504.02	0.028443
3513.67	0.027954
3523.31	0.028367
3532.95	0.028581
3542.59	0.029446
3552.24	0.028419
3561.88	0.028794
3571.52	0.030655
3581.16	0.028774
3590.8	0.029906
3600.45	0.031775
3610.09	0.030958
3619.73	0.029553
3629.37	0.031384
3639.02	0.032251
3648.66	0.035574
3658.3	0.049523
3667.94	0.066939
3677.59	0.162207
3687.23	0.021507
3696.87	0.023997
3706.51	0.02443
3716.16	0.024243
3725.8	0.026396
3735.44	0.026699
3745.08	0.025462
3754.72	0.027253
3764.37	0.025763
3774.01	0.027354
3783.65	0.027425
3793.29	0.025783
3802.94	0.028165
3812.58	0.027719
3822.22	0.028396
3831.86	0.028279
3841.51	0.029552
3851.15	0.030889
3860.79	0.028868
3870.43	0.029105
3880.07	0.030195
3889.72	0.027735
3899.36	0.030306
3909	0.030513
3918.64	0.030026
3928.29	0.029597
3937.93	0.029595
3947.57	0.030451
3957.21	0.030818
3966.86	0.03168
3976.5	0.030052
3986.14	0.0294
3995.78	0.030146
