Measurement: Infrared, Infrared Data RAW
Mineral: Thenardite
Rruff sample: R040178
Ideal chemistry: Na_2_S^6+^O_4_
Locality: Bonita Flow, Flagstaff, Coconino County, Arizona, USA
Source: University of Arizona Mineral Museum
Description: Tan colored powder
x	intensity
399.193	0.013355
408.835	0.008815
418.477	0.012154
428.12	0.011747
437.762	0.012356
447.404	0.013116
457.047	0.013316
466.689	0.014949
476.331	0.014662
485.974	0.013865
495.616	0.013399
505.258	0.013629
514.901	0.01429
524.543	0.014297
534.185	0.014479
543.828	0.015434
553.47	0.014923
563.112	0.01655
572.755	0.01925
582.397	0.025485
592.039	0.043313
601.682	0.122543
611.324	0.293766
620.966	0.152031
630.609	0.084413
640.251	0.119898
649.893	0.035236
659.536	0.015353
669.178	0.010683
678.82	0.008877
688.463	0.007995
698.105	0.008419
707.747	0.008116
717.39	0.008018
727.032	0.008047
736.674	0.008337
746.317	0.008732
755.959	0.008967
765.601	0.008737
775.244	0.00912
784.886	0.008875
794.528	0.008632
804.171	0.007996
813.813	0.007481
823.455	0.007606
833.098	0.007823
842.74	0.008086
852.382	0.00839
862.025	0.008972
871.667	0.009532
881.309	0.010365
890.952	0.011379
900.594	0.012111
910.236	0.013268
919.879	0.01434
929.521	0.01542
939.163	0.016993
948.806	0.01896
958.448	0.02147
968.09	0.025406
977.733	0.030576
987.375	0.037418
997.017	0.041953
1006.66	0.049769
1016.3	0.057833
1025.94	0.071201
1035.59	0.094526
1045.23	0.133566
1054.87	0.197403
1064.51	0.293136
1074.16	0.402274
1083.8	0.504611
1093.44	0.576427
1103.08	0.564561
1112.72	0.514074
1122.37	0.437334
1132.01	0.343315
1141.65	0.259841
1151.3	0.203219
1160.94	0.149004
1170.58	0.101238
1180.22	0.062446
1189.86	0.035145
1199.51	0.021182
1209.15	0.012454
1218.79	0.009934
1228.43	0.007466
1238.08	0.005964
1247.72	0.004941
1257.36	0.004114
1267	0.003662
1276.64	0.00326
1286.29	0.002673
1295.93	0.001951
1305.57	0.002099
1315.21	0.001694
1324.86	0.001944
1334.5	0.001559
1344.14	0.001592
1353.78	0.001541
1363.43	0.001807
1373.07	0.001367
1382.71	0.001834
1392.35	0.002176
1401.99	0.001854
1411.64	0.002007
1421.28	0.002051
1430.92	0.001795
1440.57	0.001869
1450.21	0.001965
1459.85	0.001813
1469.49	0.001698
1479.13	0.001495
1488.78	0.001543
1498.42	0.001626
1508.06	0.002078
1517.7	0.002032
1527.35	0.001817
1536.99	0.002226
1546.63	0.002204
1556.27	0.00264
1565.91	0.002528
1575.56	0.002902
1585.2	0.002984
1594.84	0.003161
1604.48	0.00373
1614.13	0.0043
1623.77	0.004376
1633.41	0.004454
1643.05	0.004256
1652.7	0.004375
1662.34	0.003847
1671.98	0.004064
1681.62	0.003821
1691.27	0.003394
1700.91	0.003643
1710.55	0.003234
1720.19	0.003495
1729.84	0.003226
1739.48	0.003819
1749.12	0.003066
1758.76	0.003127
1768.4	0.002868
1778.05	0.003302
1787.69	0.003182
1797.33	0.002884
1806.97	0.002874
1816.62	0.002704
1826.26	0.002971
1835.9	0.003365
1845.54	0.002827
1855.18	0.003308
1864.83	0.003302
1874.47	0.003404
1884.11	0.003636
1893.75	0.004256
1903.4	0.003708
1913.04	0.003005
1922.68	0.00212
1932.32	0.003316
1941.97	0.002381
1951.61	0.002906
1961.25	0.003365
1970.89	0.00252
1980.54	0.004063
1990.18	0.005106
1999.82	0.002721
2009.46	0.001881
2019.11	0.002709
2028.75	0.000504
2038.39	0.002785
2048.03	0.003513
2057.67	0.002817
2067.32	0.004177
2076.96	0.002591
2086.6	0.004693
2096.24	0.006577
2105.89	0.005517
2115.53	0.004674
2125.17	0.000697
2134.81	-0.001369
2144.45	-0.003714
2154.1	-0.008701
2163.74	-0.004485
2173.38	-0.006059
2183.02	-0.005904
2192.67	-0.004887
2202.31	-0.003784
2211.95	-0.003541
2221.59	-0.002248
2231.24	-0.002128
2240.88	-0.000621
2250.52	-0.001347
2260.16	0.000839
2269.8	0.002752
2279.45	0.002358
2289.09	0.0034
2298.73	0.005693
2308.38	0.005417
2318.02	0.006066
2327.66	0.006565
2337.3	0.006141
2346.94	0.00578
2356.59	0.006337
2366.23	0.006149
2375.87	0.006417
2385.51	0.005902
2395.16	0.005617
2404.8	0.005452
2414.44	0.006536
2424.08	0.006515
2433.72	0.006603
2443.37	0.006334
2453.01	0.006869
2462.65	0.006583
2472.29	0.006419
2481.94	0.00667
2491.58	0.006511
2501.22	0.006335
2510.86	0.007418
2520.51	0.006542
2530.15	0.005945
2539.79	0.007128
2549.43	0.007632
2559.07	0.007453
2568.72	0.008287
2578.36	0.007483
2588	0.008226
2597.64	0.0076
2607.29	0.007502
2616.93	0.007719
2626.57	0.008716
2636.21	0.008828
2645.86	0.008633
2655.5	0.008827
2665.14	0.007945
2674.78	0.008187
2684.43	0.008143
2694.07	0.007416
2703.71	0.008505
2713.35	0.008774
2722.99	0.008338
2732.64	0.007942
2742.28	0.00897
2751.92	0.008782
2761.56	0.008701
2771.21	0.009587
2780.85	0.0092
2790.49	0.008888
2800.13	0.008848
2809.78	0.009167
2819.42	0.009455
2829.06	0.009158
2838.7	0.008869
2848.34	0.009168
2857.99	0.009542
2867.63	0.009514
2877.27	0.009745
2886.91	0.010064
2896.56	0.009544
2906.2	0.009696
2915.84	0.010428
2925.48	0.00955
2935.13	0.011221
2944.77	0.009677
2954.41	0.011132
2964.05	0.009745
2973.7	0.010165
2983.34	0.010835
2992.98	0.011066
3002.62	0.010719
3012.26	0.011274
3021.91	0.010712
3031.55	0.010514
3041.19	0.011025
3050.83	0.011235
3060.48	0.011384
3070.12	0.012467
3079.76	0.0129
3089.4	0.012619
3099.05	0.013079
3108.69	0.012833
3118.33	0.013181
3127.97	0.013183
3137.61	0.014691
3147.26	0.014784
3156.9	0.014842
3166.54	0.015176
3176.18	0.01482
3185.83	0.01595
3195.47	0.016183
3205.11	0.016657
3214.75	0.016213
3224.4	0.015512
3234.04	0.01589
3243.68	0.017982
3253.32	0.017948
3262.97	0.017972
3272.61	0.018238
3282.25	0.018375
3291.89	0.01885
3301.53	0.019285
3311.18	0.018754
3320.82	0.018534
3330.46	0.018057
3340.1	0.019918
3349.75	0.017938
3359.39	0.018279
3369.03	0.0173
3378.67	0.01984
3388.32	0.018701
3397.96	0.020909
3407.6	0.02057
3417.24	0.020134
3426.89	0.019346
3436.53	0.0191
3446.17	0.018244
3455.81	0.01917
3465.45	0.018032
3475.1	0.017403
3484.74	0.018005
3494.38	0.017646
3504.02	0.018618
3513.67	0.018124
3523.31	0.017038
3532.95	0.016928
3542.59	0.017382
3552.24	0.017088
3561.88	0.016556
3571.52	0.016753
3581.16	0.017166
3590.8	0.015353
3600.45	0.016709
3610.09	0.016296
3619.73	0.014202
3629.37	0.013558
3639.02	0.016184
3648.66	0.012506
3658.3	0.015238
3667.94	0.011738
3677.59	0.014863
3687.23	0.013185
3696.87	0.015209
3706.51	0.013653
3716.16	0.014372
3725.8	0.015328
3735.44	0.014347
3745.08	0.012802
3754.72	0.014185
3764.37	0.014589
3774.01	0.015379
3783.65	0.013582
3793.29	0.011422
3802.94	0.014666
3812.58	0.014431
3822.22	0.016873
3831.86	0.012956
3841.51	0.016083
3851.15	0.017505
3860.79	0.014637
3870.43	0.013715
3880.07	0.016906
3889.72	0.013616
3899.36	0.014952
3909	0.015556
3918.64	0.014674
3928.29	0.014887
3937.93	0.016207
3947.57	0.014409
3957.21	0.014581
3966.86	0.015272
3976.5	0.014178
3986.14	0.014786
3995.78	0.014359
