Measurement: Infrared, Infrared Data RAW
Mineral: Topaz
Rruff sample: R040121
Ideal chemistry: Al_2_SiO_4_F_2_
Locality: Tepetate, San Luis Potosi, Mexico
Source: University of Arizona Mineral Museum
Description: Fragments of a prismatic single crystal
Measured chemistry: Al_2.00_(Si_0.99_Al_0.02_)(F_0.82_(OH)_0.18_)_2_
x	intensity
399.193	0.214996
408.835	0.336845
418.477	0.404003
428.12	0.404921
437.762	0.416158
447.404	0.393231
457.047	0.306857
466.689	0.215596
476.331	0.300624
485.974	0.216931
495.616	0.194476
505.258	0.199568
514.901	0.187222
524.543	0.213585
534.185	0.149204
543.828	0.125092
553.47	0.170217
563.112	0.175102
572.755	0.131078
582.397	0.227936
592.039	0.24677
601.682	0.399753
611.324	0.430222
620.966	0.333328
630.609	0.235499
640.251	0.175315
649.893	0.131852
659.536	0.097566
669.178	0.066673
678.82	0.04678
688.463	0.033906
698.105	0.030385
707.747	0.049
717.39	0.031743
727.032	0.025757
736.674	0.025079
746.317	0.025975
755.959	0.028884
765.601	0.037518
775.244	0.051962
784.886	0.07001
794.528	0.097887
804.171	0.145332
813.813	0.209118
823.455	0.288703
833.098	0.372152
842.74	0.445067
852.382	0.491642
862.025	0.493853
871.667	0.451727
881.309	0.372887
890.952	0.30372
900.594	0.268955
910.236	0.233739
919.879	0.210674
929.521	0.181227
939.163	0.172719
948.806	0.14219
958.448	0.116649
968.09	0.096259
977.733	0.078054
987.375	0.069164
997.017	0.079396
1006.66	0.082786
1016.3	0.061551
1025.94	0.044968
1035.59	0.033605
1045.23	0.026434
1054.87	0.021702
1064.51	0.018269
1074.16	0.015955
1083.8	0.014345
1093.44	0.013665
1103.08	0.013005
1112.72	0.012188
1122.37	0.011788
1132.01	0.010956
1141.65	0.01059
1151.3	0.009854
1160.94	0.009782
1170.58	0.008758
1180.22	0.00759
1189.86	0.006594
1199.51	0.005828
1209.15	0.005119
1218.79	0.00443
1228.43	0.004043
1238.08	0.003488
1247.72	0.003406
1257.36	0.003102
1267	0.002776
1276.64	0.002996
1286.29	0.002602
1295.93	0.002563
1305.57	0.002523
1315.21	0.002399
1324.86	0.002637
1334.5	0.0026
1344.14	0.002469
1353.78	0.002888
1363.43	0.001575
1373.07	0.002072
1382.71	0.002568
1392.35	0.002087
1401.99	0.002335
1411.64	0.002517
1421.28	0.001217
1430.92	0.002388
1440.57	0.003134
1450.21	0.002861
1459.85	0.001469
1469.49	0.002745
1479.13	0.003016
1488.78	0.000711
1498.42	6.2e-05
1508.06	-0.00377
1517.7	-0.000165
1527.35	0.0007
1536.99	3.4e-05
1546.63	0.001747
1556.27	-0.002149
1565.91	0.002895
1575.56	-0.001906
1585.2	0.003882
1594.84	0.00363
1604.48	0.003978
1614.13	0.002662
1623.77	0.001624
1633.41	0.001232
1643.05	0.003315
1652.7	-0.00958
1662.34	0.001806
1671.98	0.001748
1681.62	0.000699
1691.27	0.002721
1700.91	-0.005427
1710.55	0.002716
1720.19	0.001079
1729.84	0.002081
1739.48	0.000187
1749.12	0.000242
1758.76	0.001862
1768.4	0.000922
1778.05	0.002566
1787.69	0.003258
1797.33	0.003346
1806.97	0.003677
1816.62	0.00307
1826.26	0.002087
1835.9	0.002818
1845.54	0.000919
1855.18	0.002854
1864.83	0.003406
1874.47	0.002534
1884.11	0.00224
1893.75	0.002585
1903.4	0.00283
1913.04	0.002642
1922.68	0.000864
1932.32	0.001435
1941.97	0.000965
1951.61	0.00067
1961.25	-0.000182
1970.89	-0.000258
1980.54	0.002751
1990.18	0.001145
1999.82	0.000993
2009.46	-0.000967
2019.11	0.001261
2028.75	-0.000856
2038.39	0.001662
2048.03	0.002646
2057.67	0.00509
2067.32	0.0036
2076.96	0.005588
2086.6	0.005271
2096.24	0.004513
2105.89	0.005701
2115.53	0.00494
2125.17	0.003429
2134.81	0.001869
2144.45	0.001908
2154.1	-0.001154
2163.74	0.002013
2173.38	0.004278
2183.02	0.003097
2192.67	0.003561
2202.31	0.005432
2211.95	0.007224
2221.59	0.005326
2231.24	0.006021
2240.88	0.007305
2250.52	0.006484
2260.16	0.007157
2269.8	0.007028
2279.45	0.00866
2289.09	0.007857
2298.73	0.007485
2308.38	0.00735
2318.02	0.007344
2327.66	0.005761
2337.3	0.003831
2346.94	0.006223
2356.59	0.003656
2366.23	0.002942
2375.87	0.005668
2385.51	0.007439
2395.16	0.006328
2404.8	0.006744
2414.44	0.007428
2424.08	0.007923
2433.72	0.007244
2443.37	0.007497
2453.01	0.008175
2462.65	0.008028
2472.29	0.006998
2481.94	0.008314
2491.58	0.0087
2501.22	0.007547
2510.86	0.007852
2520.51	0.007891
2530.15	0.008142
2539.79	0.008403
2549.43	0.008905
2559.07	0.008118
2568.72	0.008783
2578.36	0.009519
2588	0.009631
2597.64	0.008999
2607.29	0.008739
2616.93	0.009573
2626.57	0.009243
2636.21	0.009669
2645.86	0.009146
2655.5	0.009657
2665.14	0.009254
2674.78	0.009338
2684.43	0.00908
2694.07	0.010005
2703.71	0.009501
2713.35	0.009482
2722.99	0.00937
2732.64	0.009722
2742.28	0.010134
2751.92	0.00991
2761.56	0.009233
2771.21	0.010402
2780.85	0.009984
2790.49	0.009627
2800.13	0.009848
2809.78	0.009838
2819.42	0.010689
2829.06	0.010001
2838.7	0.010944
2848.34	0.011644
2857.99	0.011283
2867.63	0.011218
2877.27	0.011155
2886.91	0.010812
2896.56	0.011357
2906.2	0.012188
2915.84	0.011065
2925.48	0.012069
2935.13	0.011824
2944.77	0.01221
2954.41	0.011924
2964.05	0.012256
2973.7	0.012428
2983.34	0.012185
2992.98	0.013097
3002.62	0.012615
3012.26	0.01292
3021.91	0.0136
3031.55	0.012414
3041.19	0.01419
3050.83	0.01296
3060.48	0.013759
3070.12	0.013278
3079.76	0.014612
3089.4	0.014359
3099.05	0.014922
3108.69	0.014304
3118.33	0.014298
3127.97	0.01515
3137.61	0.014231
3147.26	0.014587
3156.9	0.014572
3166.54	0.016321
3176.18	0.015385
3185.83	0.014771
3195.47	0.014558
3205.11	0.016552
3214.75	0.016036
3224.4	0.015953
3234.04	0.016028
3243.68	0.015347
3253.32	0.016663
3262.97	0.015539
3272.61	0.016829
3282.25	0.016163
3291.89	0.016132
3301.53	0.017143
3311.18	0.015378
3320.82	0.01552
3330.46	0.015971
3340.1	0.017282
3349.75	0.017598
3359.39	0.017537
3369.03	0.016913
3378.67	0.017549
3388.32	0.018209
3397.96	0.017219
3407.6	0.017969
3417.24	0.01744
3426.89	0.017473
3436.53	0.017995
3446.17	0.016606
3455.81	0.01779
3465.45	0.01772
3475.1	0.016034
3484.74	0.017161
3494.38	0.017571
3504.02	0.017151
3513.67	0.01647
3523.31	0.015997
3532.95	0.017867
3542.59	0.018057
3552.24	0.017145
3561.88	0.015147
3571.52	0.015011
3581.16	0.014886
3590.8	0.015406
3600.45	0.013643
3610.09	0.010504
3619.73	0.009112
3629.37	0.002246
3639.02	0.012594
3648.66	0.001917
3658.3	0.013747
3667.94	0.00746
3677.59	0.007944
3687.23	0.004268
3696.87	0.014426
3706.51	0.011016
3716.16	0.011601
3725.8	0.009521
3735.44	0.002065
3745.08	-0.005688
3754.72	0.011169
3764.37	0.011835
3774.01	0.01492
3783.65	0.012155
3793.29	0.012639
3802.94	0.006957
3812.58	0.01515
3822.22	0.006564
3831.86	0.01126
3841.51	0.010165
3851.15	0.000311
3860.79	0.013169
3870.43	0.003781
3880.07	0.010792
3889.72	0.007775
3899.36	0.007902
3909	0.014835
3918.64	0.014408
3928.29	0.016089
3937.93	0.015761
3947.57	0.013441
3957.21	0.01616
3966.86	0.017057
3976.5	0.014865
3986.14	0.016013
3995.78	0.016022
