Measurement: Infrared, Infrared Data RAW
Mineral: Wavellite
Rruff sample: R040176
Ideal chemistry: Al_3_(PO_4_)_2_(OH)_3_5H_2_O
Locality: Montgomery County, Arkansas, USA
Source: University of Arizona Mineral Museum
Description: Pale green radial aggregates
Measured chemistry: (Al_0.88_V_0.03_)_3_(P_0.97_O_4_)_2_((OH)_1.74_F_0.26_)_3_Â·5H_2_O
x	intensity
399.193	0.165864
408.835	0.175852
418.477	0.192437
428.12	0.193433
437.762	0.201918
447.404	0.19881
457.047	0.185516
466.689	0.188209
476.331	0.187301
485.974	0.178748
495.616	0.163528
505.258	0.14359
514.901	0.143565
524.543	0.157583
534.185	0.159504
543.828	0.160657
553.47	0.156329
563.112	0.148059
572.755	0.150013
582.397	0.161791
592.039	0.164935
601.682	0.155244
611.324	0.154581
620.966	0.161069
630.609	0.170837
640.251	0.177589
649.893	0.16401
659.536	0.143144
669.178	0.126608
678.82	0.107713
688.463	0.08731
698.105	0.0729
707.747	0.064586
717.39	0.059889
727.032	0.058837
736.674	0.058736
746.317	0.055834
755.959	0.051642
765.601	0.049298
775.244	0.048757
784.886	0.04893
794.528	0.050939
804.171	0.055122
813.813	0.061012
823.455	0.06541
833.098	0.067709
842.74	0.070083
852.382	0.071237
862.025	0.070224
871.667	0.066519
881.309	0.062023
890.952	0.059276
900.594	0.060104
910.236	0.063258
919.879	0.067347
929.521	0.070632
939.163	0.072159
948.806	0.073524
958.448	0.077747
968.09	0.089386
977.733	0.111126
987.375	0.147981
997.017	0.201171
1006.66	0.262363
1016.3	0.283767
1025.94	0.273276
1035.59	0.29846
1045.23	0.324598
1054.87	0.306763
1064.51	0.254767
1074.16	0.207375
1083.8	0.169354
1093.44	0.140137
1103.08	0.116491
1112.72	0.097933
1122.37	0.084933
1132.01	0.07186
1141.65	0.06752
1151.3	0.059216
1160.94	0.04479
1170.58	0.035294
1180.22	0.025333
1189.86	0.020176
1199.51	0.017174
1209.15	0.015428
1218.79	0.013621
1228.43	0.012412
1238.08	0.011348
1247.72	0.010604
1257.36	0.010093
1267	0.009602
1276.64	0.009336
1286.29	0.009138
1295.93	0.00871
1305.57	0.008528
1315.21	0.008138
1324.86	0.008165
1334.5	0.007906
1344.14	0.008001
1353.78	0.008024
1363.43	0.008286
1373.07	0.008115
1382.71	0.008454
1392.35	0.008605
1401.99	0.008851
1411.64	0.009395
1421.28	0.009769
1430.92	0.010071
1440.57	0.010466
1450.21	0.01086
1459.85	0.011174
1469.49	0.011235
1479.13	0.011305
1488.78	0.011451
1498.42	0.012391
1508.06	0.013322
1517.7	0.014147
1527.35	0.015397
1536.99	0.01711
1546.63	0.019227
1556.27	0.021439
1565.91	0.024168
1575.56	0.026328
1585.2	0.027433
1594.84	0.028267
1604.48	0.028796
1614.13	0.030381
1623.77	0.033436
1633.41	0.035425
1643.05	0.033972
1652.7	0.030918
1662.34	0.025898
1671.98	0.021396
1681.62	0.017438
1691.27	0.0146
1700.91	0.012763
1710.55	0.011274
1720.19	0.010234
1729.84	0.009146
1739.48	0.009077
1749.12	0.008268
1758.76	0.008086
1768.4	0.007822
1778.05	0.008077
1787.69	0.007309
1797.33	0.007333
1806.97	0.007302
1816.62	0.007066
1826.26	0.00679
1835.9	0.007238
1845.54	0.006806
1855.18	0.006865
1864.83	0.006947
1874.47	0.006524
1884.11	0.006589
1893.75	0.007257
1903.4	0.006741
1913.04	0.005672
1922.68	0.005233
1932.32	0.00649
1941.97	0.00341
1951.61	0.004802
1961.25	0.004252
1970.89	0.00087
1980.54	0.002716
1990.18	0.004099
1999.82	0.001758
2009.46	0.000136
2019.11	0.000243
2028.75	-0.001297
2038.39	0.001153
2048.03	0.002927
2057.67	0.004103
2067.32	0.004149
2076.96	0.004262
2086.6	0.005926
2096.24	0.004125
2105.89	0.004963
2115.53	0.005545
2125.17	0.004919
2134.81	0.002059
2144.45	0.001323
2154.1	-0.00106
2163.74	0.003604
2173.38	0.002718
2183.02	0.004154
2192.67	0.006994
2202.31	0.007585
2211.95	0.007291
2221.59	0.007771
2231.24	0.009596
2240.88	0.007867
2250.52	0.00781
2260.16	0.009269
2269.8	0.011134
2279.45	0.010836
2289.09	0.010761
2298.73	0.011822
2308.38	0.01243
2318.02	0.012177
2327.66	0.011964
2337.3	0.011359
2346.94	0.011651
2356.59	0.011503
2366.23	0.010877
2375.87	0.011681
2385.51	0.012025
2395.16	0.011461
2404.8	0.011374
2414.44	0.011808
2424.08	0.012928
2433.72	0.012017
2443.37	0.013153
2453.01	0.012986
2462.65	0.01253
2472.29	0.013184
2481.94	0.013317
2491.58	0.013099
2501.22	0.012923
2510.86	0.013423
2520.51	0.013323
2530.15	0.012436
2539.79	0.013832
2549.43	0.013705
2559.07	0.014314
2568.72	0.015073
2578.36	0.014494
2588	0.014952
2597.64	0.015315
2607.29	0.015813
2616.93	0.016204
2626.57	0.017179
2636.21	0.017644
2645.86	0.017691
2655.5	0.018565
2665.14	0.018299
2674.78	0.019065
2684.43	0.018808
2694.07	0.019254
2703.71	0.020578
2713.35	0.021368
2722.99	0.021646
2732.64	0.022492
2742.28	0.024074
2751.92	0.024562
2761.56	0.024812
2771.21	0.026649
2780.85	0.026709
2790.49	0.027604
2800.13	0.028735
2809.78	0.029422
2819.42	0.031157
2829.06	0.032191
2838.7	0.033297
2848.34	0.034026
2857.99	0.036411
2867.63	0.037101
2877.27	0.038492
2886.91	0.040198
2896.56	0.041064
2906.2	0.042458
2915.84	0.044628
2925.48	0.045434
2935.13	0.048029
2944.77	0.048661
2954.41	0.051285
2964.05	0.052021
2973.7	0.05474
2983.34	0.056966
2992.98	0.059311
3002.62	0.06052
3012.26	0.063356
3021.91	0.06544
3031.55	0.067523
3041.19	0.069803
3050.83	0.071396
3060.48	0.072679
3070.12	0.0735
3079.76	0.073898
3089.4	0.075179
3099.05	0.075034
3108.69	0.075352
3118.33	0.074239
3127.97	0.074323
3137.61	0.075741
3147.26	0.07662
3156.9	0.077415
3166.54	0.077982
3176.18	0.078681
3185.83	0.078428
3195.47	0.079271
3205.11	0.079554
3214.75	0.078885
3224.4	0.077263
3234.04	0.077656
3243.68	0.077224
3253.32	0.076473
3262.97	0.076254
3272.61	0.075951
3282.25	0.0753
3291.89	0.075562
3301.53	0.07448
3311.18	0.074854
3320.82	0.074017
3330.46	0.072914
3340.1	0.0735
3349.75	0.071739
3359.39	0.071475
3369.03	0.069929
3378.67	0.070925
3388.32	0.070859
3397.96	0.072298
3407.6	0.073638
3417.24	0.074022
3426.89	0.073109
3436.53	0.073188
3446.17	0.073785
3455.81	0.076577
3465.45	0.081535
3475.1	0.08858
3484.74	0.101272
3494.38	0.112654
3504.02	0.120286
3513.67	0.120343
3523.31	0.1104
3532.95	0.091277
3542.59	0.069021
3552.24	0.051586
3561.88	0.040905
3571.52	0.032684
3581.16	0.026523
3590.8	0.022743
3600.45	0.019946
3610.09	0.015821
3619.73	0.01301
3629.37	0.011415
3639.02	0.012029
3648.66	0.007106
3658.3	0.008757
3667.94	0.005504
3677.59	0.00797
3687.23	0.004611
3696.87	0.006004
3706.51	0.004692
3716.16	0.003447
3725.8	0.005799
3735.44	0.005667
3745.08	0.003585
3754.72	0.007001
3764.37	0.006313
3774.01	0.006927
3783.65	0.00628
3793.29	0.004094
3802.94	0.006839
3812.58	0.006473
3822.22	0.007579
3831.86	0.005971
3841.51	0.007383
3851.15	0.007985
3860.79	0.005805
3870.43	0.005817
3880.07	0.007709
3889.72	0.004471
3899.36	0.007561
3909	0.00846
3918.64	0.007433
3928.29	0.005555
3937.93	0.006918
3947.57	0.007748
3957.21	0.006678
3966.86	0.007751
3976.5	0.006222
3986.14	0.006449
3995.78	0.006854
