Measurement: Infrared, Infrared Data Processed
Mineral: Andradite
Rruff sample: R050256
Ideal chemistry: Ca_3_Fe^3+^_2_(SiO_4_)_3_
Locality: Franklin, Sussex County, New Jersey, USA
Source: Marcus Origlieri
Description: Reddish brown fragments
Measured chemistry: (Ca_2.27_Mn_0.73_)_Σ=3_(Fe^3+^_1.35_Al_0.65_)_Σ=2_(Si_1.00_O_4_)_3_
x	intensity
395.336	0.129012
404.978	0.136301
414.62	0.132265
424.263	0.11933
433.905	0.107799
443.547	0.11942
453.19	0.113173
462.832	0.0897747
472.474	0.0642463
482.117	0.0628402
491.759	0.0523049
501.401	0.0448776
511.044	0.06879
520.686	0.0912427
530.328	0.0717398
539.971	0.0375591
549.613	0.0231488
559.255	0.0178633
568.898	0.0150731
578.54	0.0132933
588.182	0.0151732
597.825	0.025335
607.467	0.0220645
617.109	0.0162645
626.752	0.0137123
636.394	0.0144346
646.036	0.0167591
655.679	0.0191343
665.321	0.0221524
674.963	0.0249718
684.606	0.0286323
694.248	0.0331168
703.89	0.0380689
713.533	0.0442402
723.175	0.0508931
732.817	0.0584612
742.46	0.0666061
752.102	0.0751604
761.744	0.0837593
771.387	0.0930721
781.029	0.102627
790.671	0.11162
800.314	0.118417
809.956	0.120398
819.598	0.120191
829.241	0.117588
838.883	0.116904
848.525	0.114737
858.168	0.0991614
867.81	0.0803431
877.452	0.0702041
887.095	0.0884153
896.737	0.110259
906.379	0.115189
916.022	0.10762
925.664	0.095432
935.306	0.0815241
944.949	0.0683723
954.591	0.0531616
964.233	0.0390786
973.876	0.027327
983.518	0.0188874
993.16	0.0143152
1002.8	0.0113902
1012.45	0.00868749
1022.09	0.00727268
1031.73	0.00658464
1041.37	0.00712367
1051.01	0.00731778
1060.66	0.00681604
1070.3	0.00581857
1079.94	0.00479751
1089.58	0.00365329
1099.23	0.00276701
1108.87	0.00198318
1118.51	0.00190754
1128.15	0.00161517
1137.8	0.00146202
1147.44	0.00130789
1157.08	0.00138724
1166.72	0.00140091
1176.37	0.00158459
1186.01	0.00168539
1195.65	0.00186962
1205.29	0.00171551
1214.93	0.00137883
1224.58	0.000967026
1234.22	0.00077914
1243.86	0.00108814
1253.5	0.00102048
1263.15	0.00102403
1272.79	0.00108198
1282.43	0.00134008
1292.07	0.00135722
1301.71	0.00152992
1311.36	0.00174296
1321	0.00177386
1330.64	0.00177517
1340.28	0.00190333
1349.93	0.00197721
1359.57	0.00222656
1369.21	0.00243156
1378.85	0.00250489
1388.5	0.00324342
1398.14	0.00410223
1407.78	0.00391626
1417.42	0.00464342
1427.07	0.00408114
1436.71	0.00491472
1446.35	0.00518799
1455.99	0.00645188
1465.63	0.00483913
1475.28	0.00483698
1484.92	0.00455194
1494.56	0.00444088
1504.2	0.00471522
1513.85	0.00472418
1523.49	0.00620912
1533.13	0.0053037
1542.77	0.00491772
1552.42	0.00437144
1562.06	0.00450139
1571.7	0.00427877
1581.34	0.00425375
1590.98	0.00430178
1600.63	0.0043781
1610.27	0.00443151
1619.91	0.00434568
1629.55	0.00424501
1639.2	0.00419352
1648.84	0.00455556
1658.48	0.00438478
1668.12	0.00503663
1677.77	0.00460048
1687.41	0.00483231
1697.05	0.00537399
1706.69	0.00483818
1716.34	0.005525
1725.98	0.00464946
1735.62	0.00534952
1745.26	0.00470345
1754.9	0.00459927
1764.55	0.00466431
1774.19	0.00463599
1783.83	0.00424876
1793.47	0.00447803
1803.12	0.00407957
1812.76	0.00415986
1822.4	0.00406935
1832.04	0.00428239
1841.69	0.00428267
1851.33	0.00398265
1860.97	0.00362798
1870.61	0.00407402
1880.26	0.00417039
1889.9	0.00363423
1899.54	0.00383254
1909.18	0.00400525
1918.82	0.00460768
1928.47	0.00451201
1938.11	0.00446212
1947.75	0.00404427
1957.39	0.00496822
1967.04	0.00396607
1976.68	0.00406281
1986.32	0.00462221
1995.96	0.00462627
2005.61	0.00365312
2015.25	0.0051032
2024.89	0.00500112
2034.53	0.00451849
2044.17	0.00336
2053.82	0.00482347
2063.46	0.00416014
2073.1	0.00463427
2082.74	0.00461991
2092.39	0.0049843
2102.03	0.00508406
2111.67	0.00473134
2121.31	0.00523358
2130.96	0.00540829
2140.6	0.00592612
2150.24	0.00424044
2159.88	0.00418084
2169.53	0.00426333
2179.17	0.00402373
2188.81	0.00482482
2198.45	0.00503679
2208.09	0.00520282
2217.74	0.00536849
2227.38	0.00510758
2237.02	0.00640804
2246.66	0.00494046
2256.31	0.00558771
2265.95	0.00479192
2275.59	0.00543736
2285.23	0.00533992
2294.88	0.00571272
2304.52	0.00582686
2314.16	0.00652364
2323.8	0.00628034
2333.45	0.00725163
2343.09	0.00770382
2352.73	0.00762374
2362.37	0.00854539
2372.01	0.00753627
2381.66	0.00683637
2391.3	0.00656618
2400.94	0.00624825
2410.58	0.00644606
2420.23	0.00641418
2429.87	0.0070194
2439.51	0.00649625
2449.15	0.00640189
2458.8	0.00687836
2468.44	0.00714184
2478.08	0.00745385
2487.72	0.00709355
2497.36	0.00698253
2507.01	0.00699618
2516.65	0.00731492
2526.29	0.00690323
2535.93	0.00659976
2545.58	0.00624995
2555.22	0.00623488
2564.86	0.0063189
2574.5	0.00654907
2584.14	0.00663095
2593.79	0.00643388
2603.43	0.00650585
2613.07	0.00668618
2622.72	0.0069941
2632.36	0.00678991
2642	0.00686955
2651.64	0.00688869
2661.28	0.00732763
2670.93	0.0073443
2680.57	0.00738743
2690.21	0.00741239
2699.85	0.00715343
2709.5	0.00773551
2719.14	0.00718903
2728.78	0.00768819
2738.42	0.00755135
2748.07	0.00816894
2757.71	0.00761346
2767.35	0.00787615
2776.99	0.00825244
2786.63	0.00814714
2796.28	0.00833523
2805.92	0.00837343
2815.56	0.00797996
2825.2	0.00841894
2834.85	0.00830865
2844.49	0.00833902
2854.13	0.00840052
2863.77	0.00860136
2873.41	0.00888882
2883.06	0.00842558
2892.7	0.00820263
2902.34	0.00856484
2911.99	0.00898797
2921.63	0.00886205
2931.27	0.00913497
2940.91	0.008763
2950.55	0.00921174
2960.2	0.00909941
2969.84	0.00859057
2979.48	0.00887451
2989.12	0.00849006
2998.77	0.00870991
3008.41	0.00825374
3018.05	0.00965075
3027.69	0.00830962
3037.34	0.0085957
3046.98	0.00818958
3056.62	0.00836512
3066.26	0.00882203
3075.9	0.00842543
3085.55	0.00874511
3095.19	0.00886032
3104.83	0.00803896
3114.47	0.00815364
3124.12	0.0091786
3133.76	0.00878657
3143.4	0.00870787
3153.04	0.00805021
3162.68	0.00888759
3172.33	0.00876429
3181.97	0.00893601
3191.61	0.00838358
3201.26	0.00841993
3210.9	0.00910717
3220.54	0.00835124
3230.18	0.00774558
3239.82	0.00795441
3249.47	0.00867787
3259.11	0.00857958
3268.75	0.00788634
3278.39	0.00773706
3288.04	0.00810406
3297.68	0.00789976
3307.32	0.0079035
3316.96	0.00780127
3326.61	0.00821435
3336.25	0.00787071
3345.89	0.00771616
3355.53	0.00782708
3365.17	0.00737112
3374.82	0.0084491
3384.46	0.00830647
3394.1	0.00824501
3403.74	0.00822856
3413.39	0.00781298
3423.03	0.00788002
3432.67	0.00680989
3442.31	0.00813951
3451.95	0.00833233
3461.6	0.00784642
3471.24	0.00801586
3480.88	0.00681284
3490.53	0.00762058
3500.17	0.00772164
3509.81	0.00808582
3519.45	0.00844903
3529.09	0.00848505
3538.74	0.00711447
3548.38	0.00761023
3558.02	0.00796486
3567.66	0.00821393
3577.31	0.00727224
3586.95	0.00793288
3596.59	0.00856009
3606.23	0.00815976
3615.88	0.00695116
3625.52	0.00703793
3635.16	0.00666462
3644.8	0.00737027
3654.44	0.00635613
3664.09	0.00644536
3673.73	0.00852799
3683.37	0.00646825
3693.01	0.00628511
3702.66	0.00706784
3712.3	0.00716303
3721.94	0.00508183
3731.58	0.00739411
3741.22	0.00691365
3750.87	0.00898563
3760.51	0.00631859
3770.15	0.00676685
3779.8	0.00710562
3789.44	0.00506325
3799.08	0.00735175
3808.72	0.00692757
3818.36	0.00573072
3828.01	0.0067357
3837.65	0.00793778
3847.29	0.00562976
3856.93	0.00745851
3866.58	0.00620521
3876.22	0.00639242
3885.86	0.00701087
3895.5	0.00552573
3905.14	0.00704976
3914.79	0.00586357
3924.43	0.00607744
3934.07	0.00683876
3943.71	0.00653469
3953.36	0.00600696
3963	0.00654606
3972.64	0.00631748
3982.28	0.00587935
3991.93	0.0051722
