Measurement: Infrared, Infrared Data Processed
Mineral: Anorthite
Rruff sample: R050104
Ideal chemistry: CaAl_2_Si_2_O_8_
Locality: unknown
Source: Rock Currier
Description: Iridescent slab, labradorite/andesine
Measured chemistry: Ca_0.50_Na_0.47_K_0.03_Al_1.50_Si_2.50_O_8_
x	intensity
374.123	0.123178
383.765	0.116982
393.407	0.111934
403.05	0.0952221
412.692	0.0795728
422.334	0.0738071
431.976	0.0687381
441.619	0.0559419
451.261	0.0465624
460.904	0.0492233
470.546	0.0512064
480.188	0.0422748
489.83	0.0370223
499.473	0.0405578
509.115	0.049055
518.758	0.0586127
528.4	0.0712841
538.042	0.0856128
547.684	0.0745837
557.327	0.0736487
566.969	0.0821265
576.611	0.0878704
586.254	0.0812063
595.896	0.0732762
605.538	0.0669792
615.181	0.0611987
624.823	0.0614109
634.466	0.0552211
644.108	0.0422176
653.75	0.0332248
663.393	0.0313161
673.035	0.0321485
682.677	0.033348
692.319	0.0326639
701.962	0.034257
711.604	0.0365331
721.246	0.0393124
730.889	0.0410034
740.531	0.0422743
750.173	0.0423422
759.816	0.0396446
769.458	0.0370411
779.101	0.0351947
788.743	0.0304915
798.385	0.0263738
808.028	0.025006
817.67	0.0262308
827.312	0.0311269
836.955	0.0378884
846.597	0.0453411
856.239	0.0541421
865.881	0.0636225
875.524	0.0761954
885.166	0.0914393
894.808	0.107308
904.451	0.117869
914.093	0.123791
923.736	0.126279
933.378	0.126912
943.02	0.126284
952.663	0.1238
962.305	0.121982
971.947	0.121503
981.59	0.121021
991.232	0.11921
1000.87	0.115115
1010.52	0.107758
1020.16	0.100446
1029.8	0.0938645
1039.44	0.0867868
1049.09	0.0805269
1058.73	0.0755156
1068.37	0.0725575
1078.01	0.0720906
1087.65	0.0740118
1097.3	0.0744973
1106.94	0.0719585
1116.58	0.0683197
1126.22	0.0654205
1135.87	0.0627581
1145.51	0.0591418
1155.15	0.0534019
1164.79	0.0452641
1174.44	0.0367997
1184.08	0.0286088
1193.72	0.0201763
1203.36	0.012305
1213.01	0.00709479
1222.65	0.00418326
1232.29	0.00240231
1241.93	0.00139334
1251.58	0.000716156
1261.22	0.000240257
1270.86	-0.000207094
1280.5	-0.000329994
1290.14	-0.000354309
1299.79	-0.000406451
1309.43	-0.000251327
1319.07	-0.000426064
1328.71	-0.000543373
1338.36	-0.000305014
1348	-0.000256006
1357.64	-0.000563651
1367.28	-0.000205733
1376.92	-0.000391592
1386.57	-3.45938e-05
1396.21	0.000164484
1405.85	0.000269021
1415.49	0.000367486
1425.14	0.00054923
1434.78	0.000717364
1444.42	0.000462302
1454.06	0.00064101
1463.71	0.000289602
1473.35	0.000553982
1482.99	0.000230594
1492.63	0.000320066
1502.28	0.000291158
1511.92	0.000239502
1521.56	0.000695393
1531.2	0.000286359
1540.85	0.00104769
1550.49	0.000300604
1560.13	0.00122148
1569.77	0.000665465
1579.41	0.000497443
1589.06	0.00049031
1598.7	0.000426232
1608.34	0.000699686
1617.98	0.00128466
1627.63	0.000693068
1637.27	0.00120796
1646.91	0.00106352
1656.55	0.000818905
1666.19	0.000679319
1675.84	0.000671523
1685.48	0.00104318
1695.12	0.000885038
1704.77	0.000231741
1714.41	4.06168e-05
1724.05	-0.000341071
1733.69	7.8358e-05
1743.33	-0.000955502
1752.98	-0.000673467
1762.62	-0.00072706
1772.26	-6.19494e-05
1781.9	-0.000928994
1791.55	-0.000759155
1801.19	-0.00100861
1810.83	-0.00112504
1820.47	-0.00128997
1830.12	-0.00113193
1839.76	-0.00169991
1849.4	-0.00150413
1859.04	-0.00135985
1868.68	-0.00155541
1878.33	-0.00205433
1887.97	-0.00243195
1897.61	-0.0026242
1907.25	-0.00261587
1916.9	-0.002656
1926.54	-0.0029947
1936.18	-0.00358961
1945.82	-0.00351741
1955.46	-0.00607037
1965.11	-0.00484112
1974.75	-0.00623709
1984.39	-0.00438206
1994.04	-0.0057649
2003.68	-0.00667399
2013.32	-0.00684233
2022.96	-0.00573051
2032.6	-0.00537291
2042.25	-0.00426237
2051.89	-0.00286899
2061.53	-0.00290309
2071.17	-0.00214267
2080.82	-0.00158368
2090.46	-0.00274298
2100.1	-0.002968
2109.74	-0.00202169
2119.39	-0.00268003
2129.03	-0.00466663
2138.67	-0.00439693
2148.31	-0.0051687
2157.95	-0.00784261
2167.6	-0.00267237
2177.24	-0.00391808
2186.88	-0.00307356
2196.52	-0.00227296
2206.17	-0.00303243
2215.81	-0.00522142
2225.45	-0.00330995
2235.09	-0.0017924
2244.74	-0.00272674
2254.38	-0.00210255
2264.02	-0.00162964
2273.66	-0.00146191
2283.3	-0.00108903
2292.95	-9.07303e-05
2302.59	-0.000419929
2312.23	0.000721121
2321.87	0.00179886
2331.52	0.000521528
2341.16	-0.000291696
2350.8	2.55713e-05
2360.44	0.000641883
2370.09	-6.44364e-05
2379.73	-0.00164002
2389.37	-0.00152785
2399.01	-0.000226465
2408.66	-0.000616045
2418.3	-0.00102724
2427.94	-0.00038504
2437.58	-7.81024e-05
2447.22	-4.97428e-05
2456.87	-0.000512455
2466.51	-6.07669e-05
2476.15	0.000230572
2485.79	-5.45144e-05
2495.44	-3.06562e-05
2505.08	0.000223584
2514.72	7.78878e-05
2524.36	0.000403791
2534.01	0.000632431
2543.65	0.000427889
2553.29	0.00046708
2562.93	0.000942758
2572.57	0.000645483
2582.22	0.000636311
2591.86	0.00045442
2601.5	0.00110305
2611.14	0.000839112
2620.79	0.00149034
2630.43	0.000791911
2640.07	0.000610766
2649.71	0.000897539
2659.36	0.000542059
2669	0.000593751
2678.64	0.000162935
2688.28	-9.49489e-06
2697.93	0.000418481
2707.57	0.000226153
2717.21	-0.000131953
2726.85	-0.000252795
2736.49	0.000150818
2746.14	-8.44632e-06
2755.78	-0.000398328
2765.42	0.000397901
2775.06	0.000281336
2784.71	-0.000478622
2794.35	-4.11613e-05
2803.99	-0.000302919
2813.63	0.000123753
2823.28	-0.000537046
2832.92	-4.52114e-05
2842.56	0.00015793
2852.2	-0.000468071
2861.84	-0.00112801
2871.49	-0.000417508
2881.13	-0.000162664
2890.77	-0.000571315
2900.41	-0.000640023
2910.06	-0.000425571
2919.7	-0.00163873
2929.34	-0.0013064
2938.98	-0.00176515
2948.62	-0.00189519
2958.27	-0.0015852
2967.91	-0.000559771
2977.55	-0.000920611
2987.2	-0.00102425
2996.84	-0.000726901
3006.48	-0.000197587
3016.12	-0.00203429
3025.76	-0.00133821
3035.41	-0.000834491
3045.05	-0.000769192
3054.69	-0.000745592
3064.33	-0.000688832
3073.98	-0.000789166
3083.62	-0.000408244
3093.26	-0.0011622
3102.9	-0.000333201
3112.55	-0.000996709
3122.19	-0.000898329
3131.83	2.41474e-05
3141.47	-0.00121709
3151.11	-0.000421881
3160.76	-0.000129663
3170.4	-6.93992e-05
3180.04	5.72264e-05
3189.68	-0.000342275
3199.33	4.3685e-05
3208.97	-0.000842531
3218.61	-0.000755771
3228.25	5.79188e-05
3237.9	-0.000777697
3247.54	7.66119e-05
3257.18	2.04488e-06
3266.82	-0.000849529
3276.47	-0.000541309
3286.11	-0.000613162
3295.75	-0.000846981
3305.39	-0.000901332
3315.03	-0.00152147
3324.68	-0.000195862
3334.32	-0.000306515
3343.96	3.88765e-05
3353.6	-0.000299519
3363.25	-0.000898697
3372.89	-0.000854622
3382.53	-0.000732159
3392.17	-0.000361247
3401.82	-0.000521232
3411.46	-0.000671454
3421.1	-0.000925265
3430.74	-0.00127891
3440.39	-0.000467593
3450.03	-0.000304612
3459.67	-0.000169791
3469.31	-0.00191368
3478.95	-0.00139293
3488.6	-0.00134983
3498.24	-0.0020927
3507.88	-0.00187394
3517.52	-0.00128744
3527.17	-0.000178136
3536.81	-0.0022316
3546.45	-0.00163054
3556.09	-0.002819
3565.74	-0.00243024
3575.38	-0.00271325
3585.02	-0.00321052
3594.66	-0.0013555
3604.3	-0.00367672
3613.95	-0.00255895
3623.59	-0.00163002
3633.23	-0.00188513
3642.87	-0.00318895
3652.52	-0.00311246
3662.16	-0.00243472
3671.8	-0.00253352
3681.44	-0.00393486
3691.09	-0.00172044
3700.73	-0.0027553
3710.37	-0.00116415
3720.01	-0.00188624
3729.66	-0.00316911
3739.3	-0.00191487
3748.94	-0.00263253
3758.58	-0.00265435
3768.22	-0.00282235
3777.87	-0.00289004
3787.51	-0.00257351
3797.15	-0.00257952
3806.79	-0.00127538
3816.44	-0.00349019
3826.08	-0.00327348
3835.72	-0.00267297
3845.36	-0.00322056
3855.01	-0.0022756
3864.65	-0.00218345
3874.29	-0.00209008
3883.93	-0.00267629
3893.57	-0.00181161
3903.22	-0.00252226
3912.86	-0.00318021
3922.5	-0.00259617
3932.14	-0.00291527
3941.79	-0.00257305
3951.43	-0.00304732
3961.07	-0.00242955
3970.71	-0.0020781
3980.36	-0.00333965
3990	-0.00241448
3999.64	-0.00357272
