Measurement: Infrared, Infrared Data Processed
Mineral: Anorthite
Rruff sample: R060082
Ideal chemistry: CaAl_2_Si_2_O_8_
Locality: Pinacate Mountains, Sonora, Mexico
Source: University of Arizona Mineral Museum
Description: Colorless crystal fragment
Measured chemistry: (Na_0.40_K_0.02_Ca_0.58_)Al_1.58_Si_2.42_O_8_
x	intensity
399.193	0.133524
408.835	0.114405
418.477	0.106572
428.12	0.0998645
437.762	0.0790348
447.404	0.064172
457.047	0.0609042
466.689	0.0635612
476.331	0.0587384
485.974	0.0520157
495.616	0.0499943
505.258	0.0582629
514.901	0.0707178
524.543	0.0909023
534.185	0.119973
543.828	0.117282
553.47	0.105831
563.112	0.121212
572.755	0.133901
582.397	0.126533
592.039	0.115226
601.682	0.105225
611.324	0.0950227
620.966	0.0895129
630.609	0.0790582
640.251	0.0576926
649.893	0.0441395
659.536	0.0413164
669.178	0.0459074
678.82	0.0494906
688.463	0.0493137
698.105	0.0498244
707.747	0.0509762
717.39	0.0521459
727.032	0.0545232
736.674	0.0564437
746.317	0.056238
755.959	0.0547504
765.601	0.0529174
775.244	0.0493242
784.886	0.043452
794.528	0.0380098
804.171	0.0337467
813.813	0.0340032
823.455	0.0408976
833.098	0.0526245
842.74	0.0655393
852.382	0.0762168
862.025	0.0841361
871.667	0.0950623
881.309	0.113824
890.952	0.138006
900.594	0.16229
910.236	0.178335
919.879	0.186166
929.521	0.189324
939.163	0.189005
948.806	0.185919
958.448	0.18144
968.09	0.178033
977.733	0.175629
987.375	0.171584
997.017	0.163977
1006.66	0.152767
1016.3	0.140581
1025.94	0.130128
1035.59	0.121618
1045.23	0.115025
1054.87	0.111032
1064.51	0.108915
1074.16	0.108826
1083.8	0.109952
1093.44	0.10952
1103.08	0.105749
1112.72	0.100064
1122.37	0.0946654
1132.01	0.0906859
1141.65	0.0868454
1151.3	0.0793129
1160.94	0.0680627
1170.58	0.0559441
1180.22	0.0438332
1189.86	0.0316888
1199.51	0.0204951
1209.15	0.0118107
1218.79	0.00688186
1228.43	0.00425026
1238.08	0.00280861
1247.72	0.00160186
1257.36	0.00097156
1267	0.000498276
1276.64	0.000294311
1286.29	0.000308511
1295.93	-1.54309e-06
1305.57	8.50028e-06
1315.21	-0.000463063
1324.86	-0.00033562
1334.5	-0.000395994
1344.14	-0.000439524
1353.78	-0.000502488
1363.43	-0.00077011
1373.07	-0.000465219
1382.71	-0.000110773
1392.35	0.000346227
1401.99	0.000936693
1411.64	0.00180671
1421.28	0.00291911
1430.92	0.00496804
1440.57	0.00452586
1450.21	0.00357715
1459.85	0.00316744
1469.49	0.00377227
1479.13	0.00469965
1488.78	0.00418532
1498.42	0.00376161
1508.06	0.00249931
1517.7	0.00338558
1527.35	0.00349318
1536.99	0.0024321
1546.63	0.00256744
1556.27	0.000643504
1565.91	0.00186151
1575.56	-9.71182e-05
1585.2	0.00125858
1594.84	0.00115911
1604.48	0.00108402
1614.13	0.000528583
1623.77	0.000232367
1633.41	0.00026188
1643.05	0.000578467
1652.7	-0.0031098
1662.34	0.000142586
1671.98	0.0001079
1681.62	-0.000192272
1691.27	0.000646518
1700.91	-0.00231256
1710.55	-8.64267e-05
1720.19	-0.000801234
1729.84	-0.000646849
1739.48	-0.00158664
1749.12	-0.00198121
1758.76	-0.000736761
1768.4	-0.00124277
1778.05	-0.000519911
1787.69	-0.000309241
1797.33	-0.000781017
1806.97	-0.000800797
1816.62	-0.00085465
1826.26	-0.000845486
1835.9	-0.00132928
1845.54	-0.00163469
1855.18	-0.00084753
1864.83	-0.00125582
1874.47	-0.00131441
1884.11	-0.00154637
1893.75	-0.00131192
1903.4	-0.00158318
1913.04	-0.00195587
1922.68	-0.00220133
1932.32	-0.00158635
1941.97	-0.00219014
1951.61	-0.00216463
1961.25	-0.00134814
1970.89	-0.00252411
1980.54	-0.000506558
1990.18	-0.00207956
1999.82	-0.00138934
2009.46	-0.0012506
2019.11	-0.00144451
2028.75	-0.00163631
2038.39	-0.00111621
2048.03	-0.000649995
2057.67	-0.00142129
2067.32	-0.00160525
2076.96	-0.000670176
2086.6	-0.00114156
2096.24	-0.000803007
2105.89	-0.000714741
2115.53	-0.00111037
2125.17	-0.00113476
2134.81	-0.00238224
2144.45	-0.00198087
2154.1	-0.00238939
2163.74	-0.000138681
2173.38	-0.000616485
2183.02	-0.000178351
2192.67	-0.00077696
2202.31	-0.000647859
2211.95	-4.55561e-05
2221.59	-0.000681129
2231.24	-0.000324335
2240.88	-1.36835e-05
2250.52	-0.000160188
2260.16	-0.000419308
2269.8	-0.00039888
2279.45	-0.000138023
2289.09	-0.000340313
2298.73	-0.000674826
2308.38	-0.00053174
2318.02	0.000579175
2327.66	0.000461526
2337.3	0.000395724
2346.94	-0.000146967
2356.59	0.000459386
2366.23	0.000526035
2375.87	-0.000580696
2385.51	-0.00116497
2395.16	-0.00089839
2404.8	-0.000937203
2414.44	-0.000251262
2424.08	-3.23893e-05
2433.72	-0.000489576
2443.37	-0.0007532
2453.01	-0.000222071
2462.65	-0.000148647
2472.29	-0.00121601
2481.94	-0.000509052
2491.58	-0.000708898
2501.22	-0.000608222
2510.86	-0.000968556
2520.51	-0.0011681
2530.15	-0.000836825
2539.79	-0.000799155
2549.43	-0.000530966
2559.07	-0.00116588
2568.72	-0.00139224
2578.36	-0.00112416
2588	-0.00102249
2597.64	-0.000723236
2607.29	-0.000915579
2616.93	-0.000477719
2626.57	0.000105849
2636.21	-0.000404753
2645.86	-0.000149171
2655.5	-0.000356075
2665.14	-0.000863772
2674.78	-0.00084032
2684.43	-0.000553736
2694.07	-0.000601739
2703.71	-0.000786158
2713.35	-0.000567376
2722.99	-0.000685156
2732.64	-0.000304464
2742.28	-0.000502061
2751.92	-0.000356418
2761.56	-0.000450938
2771.21	-0.000299186
2780.85	-0.000595032
2790.49	-0.000462587
2800.13	-0.000525175
2809.78	-0.000419743
2819.42	-0.000422444
2829.06	-0.000417759
2838.7	-0.000458444
2848.34	-0.00201841
2857.99	-0.00197537
2867.63	-0.00143878
2877.27	-0.00124549
2886.91	-0.00124254
2896.56	-0.00154832
2906.2	-0.00197806
2915.84	-0.00363729
2925.48	-0.00389898
2935.13	-0.00279032
2944.77	-0.00190509
2954.41	-0.00172427
2964.05	-0.00139997
2973.7	-0.00140415
2983.34	-0.00151044
2992.98	-0.00112809
3002.62	-0.00134336
3012.26	-0.00101505
3021.91	-0.00135024
3031.55	-0.0016644
3041.19	-0.0016672
3050.83	-0.00109571
3060.48	-0.00119382
3070.12	-0.00127636
3079.76	-0.00111441
3089.4	-0.00127368
3099.05	-0.00148046
3108.69	-0.00126622
3118.33	-0.00109445
3127.97	-0.00084981
3137.61	-0.000374339
3147.26	-0.00119872
3156.9	-0.00034926
3166.54	-0.00113837
3176.18	-0.000883344
3185.83	-0.000787395
3195.47	-0.00116907
3205.11	-0.000742484
3214.75	-0.000398046
3224.4	-0.000838137
3234.04	-0.000868164
3243.68	-0.000424283
3253.32	-0.00101175
3262.97	-0.000912317
3272.61	-0.000968537
3282.25	-0.00164405
3291.89	-0.000911334
3301.53	-0.00111315
3311.18	-0.00160107
3320.82	-0.00132586
3330.46	-0.00177911
3340.1	-0.00175352
3349.75	-0.00157974
3359.39	-0.00137667
3369.03	-0.00174947
3378.67	-0.00126507
3388.32	-0.00185149
3397.96	-0.00155513
3407.6	-0.00169768
3417.24	-0.00190895
3426.89	-0.00158791
3436.53	-0.00108212
3446.17	-0.00160442
3455.81	-0.00203671
3465.45	-0.0021411
3475.1	-0.00200191
3484.74	-0.00237441
3494.38	-0.00189095
3504.02	-0.00263378
3513.67	-0.00176549
3523.31	-0.0023665
3532.95	-0.00254883
3542.59	-0.00338764
3552.24	-0.00370001
3561.88	-0.0030807
3571.52	-0.00409431
3581.16	-0.00445
3590.8	-0.00502857
3600.45	-0.00408116
3610.09	-0.00531001
3619.73	-0.00521919
3629.37	-0.00690389
3639.02	-0.00472885
3648.66	-0.00633781
3658.3	-0.0049996
3667.94	-0.00541682
3677.59	-0.00621432
3687.23	-0.00783979
3696.87	-0.00518321
3706.51	-0.00421705
3716.16	-0.00508825
3725.8	-0.00607437
3735.44	-0.00733714
3745.08	-0.0102999
3754.72	-0.00572825
3764.37	-0.00565102
3774.01	-0.00502713
3783.65	-0.00524145
3793.29	-0.00502915
3802.94	-0.00768604
3812.58	-0.00561443
3822.22	-0.00679531
3831.86	-0.00666651
3841.51	-0.00683171
3851.15	-0.0100483
3860.79	-0.00698463
3870.43	-0.0081454
3880.07	-0.00732971
3889.72	-0.00707346
3899.36	-0.00678571
3909	-0.00527198
3918.64	-0.00559938
3928.29	-0.00603864
3937.93	-0.00563216
3947.57	-0.00615145
3957.21	-0.00547728
3966.86	-0.00591297
3976.5	-0.00605022
3986.14	-0.0061067
3995.78	-0.00682106
