Measurement: Infrared, Infrared Data Processed
Mineral: Antlerite
Rruff sample: R050212
Ideal chemistry: Cu^2+^_3_(S^6+^O_4_)(OH)_4_
Locality: Chuquicamata mine, Calama, Antofagasta Province, Chile
Source: John Dagenais
Description: Deep green tabular crystals
Measured chemistry: Cu_3.00_S_1.00_O_4_(OH)_4_
x	intensity
372.194	0
381.836	0.0730307
391.479	0.0841449
401.121	0.129194
410.763	0.207982
420.406	0.193977
430.048	0.114607
439.69	0.112231
449.333	0.150129
458.975	0.189217
468.617	0.162779
478.26	0.23371
487.902	0.264974
497.544	0.195936
507.187	0.144238
516.829	0.175429
526.471	0.0653446
536.114	0.049226
545.756	0.052581
555.398	0.0610749
565.041	0.0777713
574.683	0.111036
584.325	0.172578
593.968	0.276589
603.61	0.311148
613.252	0.287371
622.895	0.197465
632.537	0.302973
642.179	0.200987
651.822	0.103623
661.464	0.110664
671.106	0.114619
680.749	0.0718459
690.391	0.0632182
700.033	0.0694974
709.676	0.0848499
719.318	0.112805
728.96	0.153753
738.603	0.222236
748.245	0.299805
757.887	0.284727
767.53	0.224373
777.172	0.205417
786.814	0.228045
796.457	0.211359
806.099	0.146865
815.741	0.0995467
825.384	0.0958164
835.026	0.134258
844.668	0.217108
854.311	0.226583
863.953	0.175442
873.595	0.235907
883.238	0.200523
892.88	0.118336
902.522	0.0656444
912.165	0.044507
921.807	0.0361583
931.449	0.0319695
941.092	0.0310314
950.734	0.0314842
960.376	0.0330826
970.019	0.0385715
979.661	0.0543083
989.303	0.132292
998.946	0.0456826
1008.59	0.0560967
1018.23	0.0692699
1027.87	0.0933726
1037.52	0.132781
1047.16	0.208555
1056.8	0.362948
1066.44	0.525093
1076.08	0.451147
1085.73	0.328134
1095.37	0.380576
1105.01	0.452118
1114.65	0.31944
1124.3	0.189054
1133.94	0.125854
1143.58	0.126759
1153.22	0.165321
1162.87	0.102557
1172.51	0.0382565
1182.15	0.0203374
1191.79	0.0150252
1201.43	0.0123372
1211.08	0.0106939
1220.72	0.00972965
1230.36	0.00898662
1240	0.00831549
1249.65	0.00709611
1259.29	0.00588992
1268.93	0.00503908
1278.57	0.00491284
1288.22	0.00487906
1297.86	0.00424103
1307.5	0.00395302
1317.14	0.00407812
1326.79	0.00403634
1336.43	0.00415576
1346.07	0.00427361
1355.71	0.00424333
1365.35	0.00412999
1375	0.00429065
1384.64	0.00471439
1394.28	0.0052366
1403.92	0.00556403
1413.57	0.00546679
1423.21	0.00530234
1432.85	0.00534583
1442.49	0.00544983
1452.13	0.00553596
1461.78	0.00565022
1471.42	0.00603757
1481.06	0.00677582
1490.7	0.00703266
1500.35	0.00703714
1509.99	0.00739131
1519.63	0.00785416
1529.27	0.00905135
1538.92	0.0100828
1548.56	0.0108108
1558.2	0.0105703
1567.84	0.0102539
1577.49	0.0102214
1587.13	0.010412
1596.77	0.010447
1606.41	0.0106067
1616.06	0.0139633
1625.7	0.0146102
1635.34	0.010928
1644.98	0.0107155
1654.62	0.0101167
1664.27	0.0100896
1673.91	0.0104549
1683.55	0.0119806
1693.19	0.0104849
1702.84	0.00957872
1712.48	0.00915062
1722.12	0.0087013
1731.76	0.00816676
1741.4	0.00759944
1751.05	0.00752232
1760.69	0.0083217
1770.33	0.00859401
1779.97	0.0087891
1789.62	0.00872271
1799.26	0.00875909
1808.9	0.0084685
1818.54	0.0086005
1828.19	0.008877
1837.83	0.0088205
1847.47	0.00912077
1857.11	0.00960347
1866.76	0.00922955
1876.4	0.00920724
1886.04	0.00929026
1895.68	0.00932531
1905.33	0.00940569
1914.97	0.00932892
1924.61	0.00900265
1934.25	0.00892675
1943.89	0.00982367
1953.54	0.00863725
1963.18	0.00875486
1972.82	0.00896067
1982.46	0.00884849
1992.11	0.0109502
2001.75	0.00935094
2011.39	0.0102637
2021.03	0.008709
2030.67	0.0116557
2040.32	0.0123329
2049.96	0.0140503
2059.6	0.0136388
2069.24	0.0123773
2078.89	0.0120873
2088.53	0.0107135
2098.17	0.0104269
2107.81	0.00973841
2117.46	0.00852056
2127.1	0.0081923
2136.74	0.00663236
2146.38	0.00445431
2156.03	0.00387013
2165.67	0.00732517
2175.31	0.00650261
2184.95	0.00942977
2194.59	0.00843069
2204.24	0.00498182
2213.88	0.00559266
2223.52	0.00789968
2233.16	0.00867023
2242.81	0.00975466
2252.45	0.0107262
2262.09	0.011284
2271.73	0.0127109
2281.38	0.0125363
2291.02	0.0126704
2300.66	0.0121603
2310.3	0.0125507
2319.95	0.0137119
2329.59	0.0137211
2339.23	0.0140133
2348.87	0.0136472
2358.51	0.0150593
2368.16	0.0146313
2377.8	0.0138997
2387.44	0.0136643
2397.08	0.0139668
2406.73	0.0147303
2416.37	0.0147005
2426.01	0.0153094
2435.65	0.0148787
2445.3	0.0153955
2454.94	0.0149768
2464.58	0.015339
2474.22	0.0152902
2483.86	0.0159949
2493.51	0.0158145
2503.15	0.0159342
2512.79	0.0161811
2522.43	0.0159137
2532.08	0.0166033
2541.72	0.016542
2551.36	0.016475
2561	0.0173575
2570.65	0.0177329
2580.29	0.0171954
2589.93	0.0180672
2599.57	0.0173877
2609.22	0.0180856
2618.86	0.0184874
2628.5	0.0183428
2638.14	0.018329
2647.78	0.0184102
2657.43	0.0181
2667.07	0.017384
2676.71	0.017913
2686.35	0.0178796
2696	0.0179444
2705.64	0.0185713
2715.28	0.0183192
2724.92	0.0187173
2734.57	0.0184132
2744.21	0.018859
2753.85	0.0187641
2763.49	0.0192572
2773.14	0.0195211
2782.78	0.0197193
2792.42	0.0197026
2802.06	0.0201713
2811.7	0.0205553
2821.35	0.0201245
2830.99	0.0206333
2840.63	0.0200884
2850.27	0.0182207
2859.92	0.0191086
2869.56	0.0205627
2879.2	0.0210935
2888.84	0.0213176
2898.49	0.0205795
2908.13	0.0200219
2917.77	0.0179105
2927.41	0.0179943
2937.05	0.0196746
2946.7	0.0217645
2956.34	0.0221401
2965.98	0.0228068
2975.62	0.0235681
2985.27	0.0236088
2994.91	0.023326
3004.55	0.0242536
3014.19	0.0229465
3023.84	0.0244081
3033.48	0.0242376
3043.12	0.0260317
3052.76	0.0257992
3062.41	0.0260511
3072.05	0.0265545
3081.69	0.0264854
3091.33	0.0269874
3100.97	0.0281884
3110.62	0.0285686
3120.26	0.0285205
3129.9	0.0298483
3139.54	0.0297844
3149.19	0.0303513
3158.83	0.0311723
3168.47	0.0309474
3178.11	0.0318924
3187.76	0.0323203
3197.4	0.0336568
3207.04	0.0334628
3216.68	0.0342632
3226.32	0.0356474
3235.97	0.0361802
3245.61	0.0361269
3255.25	0.0376836
3264.89	0.038155
3274.54	0.0389713
3284.18	0.0407635
3293.82	0.0410851
3303.46	0.0427267
3313.11	0.0449838
3322.75	0.045979
3332.39	0.0474588
3342.03	0.0488375
3351.68	0.0515099
3361.32	0.0549132
3370.96	0.0572162
3380.6	0.061128
3390.24	0.0673604
3399.89	0.0720891
3409.53	0.077718
3419.17	0.0800706
3428.81	0.0832735
3438.46	0.0912761
3448.1	0.106645
3457.74	0.134193
3467.38	0.192725
3477.03	0.317006
3486.67	0.454817
3496.31	0.225546
3505.95	0.0775982
3515.59	0.0533817
3525.24	0.0503051
3534.88	0.0531746
3544.52	0.0614559
3554.16	0.0758044
3563.81	0.141
3573.45	0.38169
3583.09	0.188071
3592.73	0.0291172
3602.38	0.0224501
3612.02	0.0212136
3621.66	0.0230793
3631.3	0.0224215
3640.95	0.0207468
3650.59	0.0210559
3660.23	0.0212477
3669.87	0.0225001
3679.51	0.0215241
3689.16	0.0227461
3698.8	0.0241979
3708.44	0.0221177
3718.08	0.0212076
3727.73	0.0226184
3737.37	0.0211876
3747.01	0.0216231
3756.65	0.0218135
3766.3	0.0224458
3775.94	0.0218279
3785.58	0.0228817
3795.22	0.0243835
3804.86	0.0233355
3814.51	0.0235485
3824.15	0.0245502
3833.79	0.0235197
3843.43	0.0249093
3853.08	0.0239696
3862.72	0.0247117
3872.36	0.0239164
3882	0.0248966
3891.65	0.024598
3901.29	0.0251669
3910.93	0.0258115
3920.57	0.0256894
3930.22	0.0259676
3939.86	0.0258023
3949.5	0.0263487
3959.14	0.0263385
3968.78	0.0259917
3978.43	0.0262919
3988.07	0.0262629
3997.71	0.0268815
