Measurement: Infrared, Infrared Data Processed
Mineral: Argesite
Rruff sample: R130008
Ideal chemistry: (N^3-^H_4_)_7_Bi^3+^_3_Cl_16_
Locality: La Fossa crater, Vulcano, Aeolian Islands, Sicily, Italy
Source: Francesco Demartin
Description: Pale-yellow crystals up to 0.15 mm in length, associated with bismuthinite, adranosite, brontesite, demicheleite-(Br), demicheleite-(Cl), and panichiite. Data from Demartin et al (2012).
Measured chemistry: [(NH_4_)_6.29_K_0.91_Tl_0.06_]_Σ=7.26_Bi_2.93_(Cl_13.33_Br_2.37_I_0.11_)_Σ=15.81_
x	intensity
999.91	-0.320065
1007.62	-0.32296
1015.34	-0.331485
1023.05	-0.336324
1030.77	-0.344137
1038.48	-0.351874
1046.19	-0.364054
1053.91	-0.375182
1061.62	-0.390598
1069.34	-0.405778
1077.05	-0.422224
1084.76	-0.427584
1092.48	-0.430119
1100.19	-0.428175
1107.9	-0.424187
1115.62	-0.420428
1123.33	-0.423658
1131.05	-0.429179
1138.76	-0.440944
1146.47	-0.445346
1154.19	-0.440285
1161.9	-0.439642
1169.62	-0.437417
1177.33	-0.438976
1185.04	-0.441205
1192.76	-0.447884
1200.47	-0.453074
1208.18	-0.457425
1215.9	-0.461888
1223.61	-0.466536
1231.33	-0.470843
1239.04	-0.47362
1246.75	-0.47942
1254.47	-0.487458
1262.18	-0.489785
1269.9	-0.499153
1277.61	-0.510258
1285.32	-0.519345
1293.04	-0.530033
1300.75	-0.544066
1308.46	-0.559012
1316.18	-0.567514
1323.89	-0.593146
1331.61	-0.617859
1339.32	-0.656976
1347.03	-0.670062
1354.75	-0.717254
1362.46	-0.77592
1370.18	-0.827459
1377.89	-0.925286
1385.6	-0.997794
1393.32	-1.04285
1401.03	-1.055
1408.74	-1.00056
1416.46	-0.901417
1424.17	-0.740473
1431.89	-0.64658
1439.6	-0.569477
1447.31	-0.537019
1455.03	-0.534715
1462.74	-0.515744
1470.46	-0.519598
1478.17	-0.492609
1485.88	-0.50056
1493.6	-0.489796
1501.31	-0.488195
1509.03	-0.488678
1516.74	-0.506555
1524.45	-0.490582
1532.17	-0.49195
1539.88	-0.503471
1547.6	-0.508699
1555.31	-0.519075
1563.02	-0.522693
1570.74	-0.525905
1578.45	-0.533553
1586.16	-0.541005
1593.88	-0.551049
1601.59	-0.557878
1609.31	-0.551001
1617.02	-0.550268
1624.73	-0.54117
1632.45	-0.554379
1640.16	-0.547072
1647.88	-0.556441
1655.59	-0.546619
1663.3	-0.550706
1671.02	-0.53736
1678.73	-0.540302
1686.44	-0.534409
1694.16	-0.5303
1701.87	-0.525957
1709.59	-0.523697
1717.3	-0.516027
1725.01	-0.519181
1732.73	-0.517508
1740.44	-0.510637
1748.15	-0.503779
1755.87	-0.506113
1763.58	-0.513647
1771.3	-0.51177
1779.01	-0.512524
1786.72	-0.50531
1794.44	-0.508718
1802.15	-0.501462
1809.87	-0.508391
1817.58	-0.504033
1825.29	-0.497416
1833.01	-0.500573
1840.72	-0.50334
1848.44	-0.501819
1856.15	-0.500987
1863.86	-0.500498
1871.58	-0.499682
1879.29	-0.503488
1887.01	-0.501333
1894.72	-0.499941
1902.43	-0.502984
1910.15	-0.503996
1917.86	-0.496289
1925.57	-0.499307
1933.29	-0.496992
1941	-0.497418
1948.72	-0.493942
1956.43	-0.497259
1964.14	-0.495219
1971.86	-0.493197
1979.57	-0.49511
1987.29	-0.492345
1995	-0.493162
2002.71	-0.495016
2010.43	-0.492935
2018.14	-0.489482
2025.85	-0.490643
2033.57	-0.487888
2041.28	-0.493313
2049	-0.489032
2056.71	-0.488395
2064.42	-0.486249
2072.14	-0.490986
2079.85	-0.487793
2087.57	-0.486777
2095.28	-0.483991
2102.99	-0.485889
2110.71	-0.48097
2118.42	-0.483436
2126.14	-0.481001
2133.85	-0.475703
2141.56	-0.477913
2149.28	-0.483128
2156.99	-0.477791
2164.7	-0.474923
2172.42	-0.477965
2180.13	-0.473791
2187.85	-0.476818
2195.56	-0.478964
2203.27	-0.476051
2210.99	-0.480158
2218.7	-0.478661
2226.41	-0.478586
2234.13	-0.478105
2241.84	-0.480271
2249.56	-0.475718
2257.27	-0.48147
2264.98	-0.479922
2272.7	-0.477405
2280.41	-0.474253
2288.13	-0.480535
2295.84	-0.477295
2303.55	-0.479576
2311.27	-0.481756
2318.98	-0.491035
2326.7	-0.501963
2334.41	-0.482507
2342.12	-0.513673
2349.84	-0.496103
2357.55	-0.486685
2365.26	-0.506065
2372.98	-0.491776
2380.69	-0.489561
2388.41	-0.486147
2396.12	-0.482818
2403.83	-0.483531
2411.55	-0.485674
2419.26	-0.488339
2426.98	-0.487045
2434.69	-0.490578
2442.4	-0.487997
2450.12	-0.491092
2457.83	-0.49018
2465.55	-0.48666
2473.26	-0.488756
2480.97	-0.488851
2488.69	-0.486493
2496.4	-0.487122
2504.11	-0.48819
2511.83	-0.49103
2519.54	-0.49168
2527.26	-0.49149
2534.97	-0.493736
2542.68	-0.494219
2550.4	-0.498074
2558.11	-0.494818
2565.82	-0.497669
2573.54	-0.496973
2581.25	-0.495414
2588.97	-0.50095
2596.68	-0.498794
2604.39	-0.500672
2612.11	-0.503078
2619.82	-0.501424
2627.54	-0.504231
2635.25	-0.506711
2642.96	-0.507031
2650.68	-0.506544
2658.39	-0.511211
2666.11	-0.51295
2673.82	-0.513739
2681.53	-0.520793
2689.25	-0.521839
2696.96	-0.524026
2704.68	-0.530489
2712.39	-0.533075
2720.1	-0.534842
2727.82	-0.540121
2735.53	-0.548041
2743.24	-0.55316
2750.96	-0.56027
2758.67	-0.566716
2766.39	-0.572841
2774.1	-0.58659
2781.81	-0.597686
2789.53	-0.612074
2797.24	-0.624391
2804.95	-0.629887
2812.67	-0.634323
2820.38	-0.635559
2828.1	-0.630813
2835.81	-0.627076
2843.52	-0.627752
2851.24	-0.62931
2858.95	-0.628066
2866.67	-0.629936
2874.38	-0.636877
2882.09	-0.641893
2889.81	-0.64868
2897.52	-0.653902
2905.24	-0.663401
2912.95	-0.675305
2920.66	-0.677505
2928.38	-0.685706
2936.09	-0.702995
2943.8	-0.711211
2951.52	-0.710392
2959.23	-0.730555
2966.95	-0.735419
2974.66	-0.751421
2982.37	-0.777355
2990.09	-0.773372
2997.8	-0.793195
3005.52	-0.793899
3013.23	-0.813443
3020.94	-0.821806
3028.66	-0.837719
3036.37	-0.834059
3044.09	-0.837683
3051.8	-0.854098
3059.51	-0.848164
3067.23	-0.847021
3074.94	-0.865323
3082.65	-0.869662
3090.37	-0.870703
3098.08	-0.882467
3105.8	-0.898251
3113.51	-0.910071
3121.22	-0.936127
3128.94	-0.939482
3136.65	-0.942744
3144.36	-0.941008
3152.08	-0.966542
3159.79	-0.972409
3167.51	-0.974938
3175.22	-0.960365
3182.93	-0.974327
3190.65	-0.980989
3198.36	-0.971812
3206.08	-0.975114
3213.79	-0.975135
3221.5	-0.959536
3229.22	-0.96062
3236.93	-0.947424
3244.65	-0.94383
3252.36	-0.921839
3260.07	-0.921579
3267.79	-0.886831
3275.5	-0.878318
3283.22	-0.869225
3290.93	-0.854294
3298.64	-0.823019
3306.36	-0.803326
3314.07	-0.797097
3321.78	-0.770265
3329.5	-0.756233
3337.21	-0.737376
3344.93	-0.728081
3352.64	-0.716674
3360.35	-0.708001
3368.07	-0.698628
3375.78	-0.69534
3383.49	-0.68568
3391.21	-0.67468
3398.92	-0.669336
3406.64	-0.669089
3414.35	-0.677641
3422.07	-0.672512
3429.78	-0.6694
3437.49	-0.659561
3445.21	-0.663103
3452.92	-0.662636
3460.63	-0.660458
3468.35	-0.674109
3476.06	-0.666508
3483.78	-0.659219
3491.49	-0.67417
3499.2	-0.674149
3506.92	-0.665348
3514.63	-0.67669
3522.34	-0.665414
3530.06	-0.669107
3537.77	-0.655216
3545.49	-0.655262
3553.2	-0.638793
3560.91	-0.643628
3568.63	-0.613373
3576.34	-0.604916
3584.06	-0.590431
3591.77	-0.571877
3599.48	-0.557365
3607.2	-0.550882
3614.91	-0.533793
3622.62	-0.529642
3630.34	-0.528914
3638.05	-0.523377
3645.77	-0.51495
3653.48	-0.491942
3661.2	-0.519761
3668.91	-0.497279
3676.62	-0.486816
3684.34	-0.502807
3692.05	-0.518184
3699.76	-0.495551
3707.48	-0.504934
3715.19	-0.506242
3722.91	-0.517944
3730.62	-0.494822
3738.33	-0.484909
3746.05	-0.451768
3753.76	-0.511829
3761.47	-0.50744
3769.19	-0.488904
3776.9	-0.509997
3784.62	-0.494029
3792.33	-0.497787
3800.04	-0.502967
