Measurement: Infrared, Infrared Data Processed
Mineral: Augite
Rruff sample: R061086
Ideal chemistry: (Ca,Mg,Fe^2+^,Fe^3+^)_2_(Si,Al)_2_O_6_
Locality: Boreslav, Teplitz, Bohemia, Czech Republic
Source: Michael Scott
Description: Black to dark green tabular euhedral crystal
Measured chemistry: (Ca_0.88_Mg_0.83_Fe_0.13_Al_0.08_Na_0.04_Ti_0.03_Cr_0.01_)_Σ=2_(Si_1.89_Al_0.11_)_Σ=2_O_6_
x	intensity
399.193	0
408.835	0.158306
418.477	0.137229
428.12	0.140712
437.762	0.15306
447.404	0.172267
457.047	0.188965
466.689	0.19157
476.331	0.185567
485.974	0.17019
495.616	0.162974
505.258	0.166006
514.901	0.154547
524.543	0.132762
534.185	0.110208
543.828	0.0929621
553.47	0.0772417
563.112	0.0620999
572.755	0.0477125
582.397	0.0351809
592.039	0.0301472
601.682	0.0316934
611.324	0.0383259
620.966	0.0454552
630.609	0.0548788
640.251	0.0485839
649.893	0.0375594
659.536	0.0377445
669.178	0.0421647
678.82	0.0381717
688.463	0.0319307
698.105	0.031161
707.747	0.0313162
717.39	0.0323877
727.032	0.0354597
736.674	0.0407523
746.317	0.0476581
755.959	0.0535702
765.601	0.0574467
775.244	0.0625945
784.886	0.0696552
794.528	0.078079
804.171	0.0902833
813.813	0.105793
823.455	0.121331
833.098	0.138835
842.74	0.162263
852.382	0.184445
862.025	0.190824
871.667	0.188383
881.309	0.180008
890.952	0.170684
900.594	0.163421
910.236	0.157131
919.879	0.14714
929.521	0.130886
939.163	0.121846
948.806	0.128798
958.448	0.142266
968.09	0.141231
977.733	0.12188
987.375	0.0999266
997.017	0.0871479
1006.66	0.0804866
1016.3	0.078661
1025.94	0.0851658
1035.59	0.0966691
1045.23	0.1118
1054.87	0.128858
1064.51	0.138075
1074.16	0.12534
1083.8	0.0990598
1093.44	0.0739261
1103.08	0.0523973
1112.72	0.0352573
1122.37	0.0230034
1132.01	0.0140981
1141.65	0.00912116
1151.3	0.00632806
1160.94	0.0050769
1170.58	0.00407636
1180.22	0.00342576
1189.86	0.00305171
1199.51	0.00265396
1209.15	0.0024724
1218.79	0.00209579
1228.43	0.00204415
1238.08	0.0019114
1247.72	0.00208328
1257.36	0.0019806
1267	0.00188618
1276.64	0.00204298
1286.29	0.00218437
1295.93	0.00242544
1305.57	0.00249247
1315.21	0.00248459
1324.86	0.00247046
1334.5	0.00260397
1344.14	0.00271434
1353.78	0.00293179
1363.43	0.00313382
1373.07	0.00315133
1382.71	0.00342224
1392.35	0.00376198
1401.99	0.00401807
1411.64	0.00412295
1421.28	0.00424657
1430.92	0.00453701
1440.57	0.00467117
1450.21	0.00496209
1459.85	0.0045649
1469.49	0.0047219
1479.13	0.00523254
1488.78	0.00511868
1498.42	0.00509505
1508.06	0.00541567
1517.7	0.00550878
1527.35	0.00545715
1536.99	0.00561075
1546.63	0.00549513
1556.27	0.0054863
1565.91	0.00581397
1575.56	0.00575686
1585.2	0.00603188
1594.84	0.00602828
1604.48	0.00596136
1614.13	0.00635616
1623.77	0.00626299
1633.41	0.00629959
1643.05	0.00641721
1652.7	0.0058247
1662.34	0.00657076
1671.98	0.00612389
1681.62	0.0055566
1691.27	0.00583883
1700.91	0.00524121
1710.55	0.00580512
1720.19	0.00581499
1729.84	0.0057576
1739.48	0.00473967
1749.12	0.00473458
1758.76	0.00524116
1768.4	0.00485591
1778.05	0.00567922
1787.69	0.00523603
1797.33	0.00511081
1806.97	0.0054919
1816.62	0.00475481
1826.26	0.00521637
1835.9	0.00482502
1845.54	0.00516838
1855.18	0.00542452
1864.83	0.00518086
1874.47	0.00517191
1884.11	0.00543906
1893.75	0.00518391
1903.4	0.00493384
1913.04	0.00443517
1922.68	0.003839
1932.32	0.00389345
1941.97	0.00346722
1951.61	0.00195158
1961.25	0.00154115
1970.89	0.000135226
1980.54	0.00420369
1990.18	0.004066
1999.82	0.00138977
2009.46	0.00241694
2019.11	0.00357695
2028.75	0.00423257
2038.39	0.00549197
2048.03	0.00513676
2057.67	0.00417506
2067.32	0.0043347
2076.96	0.0049986
2086.6	0.00653128
2096.24	0.00622901
2105.89	0.00652173
2115.53	0.00436139
2125.17	0.00388884
2134.81	0.00238407
2144.45	0.000929087
2154.1	-0.00271808
2163.74	0.00269332
2173.38	0.00379207
2183.02	0.00717167
2192.67	0.00464569
2202.31	0.00570668
2211.95	0.00753914
2221.59	0.0080886
2231.24	0.00911156
2240.88	0.00914956
2250.52	0.0102234
2260.16	0.0113352
2269.8	0.0102022
2279.45	0.012907
2289.09	0.0117795
2298.73	0.0117108
2308.38	0.0122872
2318.02	0.0117659
2327.66	0.011864
2337.3	0.011967
2346.94	0.0114776
2356.59	0.0122015
2366.23	0.0115318
2375.87	0.0118356
2385.51	0.0111837
2395.16	0.0112018
2404.8	0.0124809
2414.44	0.0111014
2424.08	0.0115696
2433.72	0.0110405
2443.37	0.0116389
2453.01	0.0125561
2462.65	0.0121511
2472.29	0.0106605
2481.94	0.0123062
2491.58	0.0123096
2501.22	0.012151
2510.86	0.0118045
2520.51	0.0114346
2530.15	0.0127925
2539.79	0.0117724
2549.43	0.0116375
2559.07	0.011975
2568.72	0.0126117
2578.36	0.0122518
2588	0.0130353
2597.64	0.0124608
2607.29	0.0133592
2616.93	0.012787
2626.57	0.0140561
2636.21	0.0135117
2645.86	0.0134425
2655.5	0.0139099
2665.14	0.0132082
2674.78	0.0132328
2684.43	0.0123587
2694.07	0.0127022
2703.71	0.0134509
2713.35	0.0127975
2722.99	0.0134666
2732.64	0.0135426
2742.28	0.0133229
2751.92	0.0133037
2761.56	0.0130777
2771.21	0.0131759
2780.85	0.0140012
2790.49	0.0141516
2800.13	0.0130988
2809.78	0.0139951
2819.42	0.014581
2829.06	0.0142197
2838.7	0.0137123
2848.34	0.0133183
2857.99	0.0133239
2867.63	0.0130785
2877.27	0.0131275
2886.91	0.0137667
2896.56	0.0134766
2906.2	0.013613
2915.84	0.0134871
2925.48	0.0129989
2935.13	0.012084
2944.77	0.0127986
2954.41	0.0132359
2964.05	0.0142661
2973.7	0.0139366
2983.34	0.0131993
2992.98	0.0132159
3002.62	0.0143451
3012.26	0.0146942
3021.91	0.0144251
3031.55	0.0140446
3041.19	0.0155063
3050.83	0.0149724
3060.48	0.0164277
3070.12	0.0161937
3079.76	0.0158683
3089.4	0.016605
3099.05	0.015612
3108.69	0.0165811
3118.33	0.0169783
3127.97	0.0164525
3137.61	0.0166624
3147.26	0.0161873
3156.9	0.0177832
3166.54	0.0181801
3176.18	0.0177796
3185.83	0.0166878
3195.47	0.0177406
3205.11	0.0179449
3214.75	0.0179545
3224.4	0.0177673
3234.04	0.0194771
3243.68	0.0171803
3253.32	0.017629
3262.97	0.0192766
3272.61	0.0185906
3282.25	0.0183844
3291.89	0.0185159
3301.53	0.0183615
3311.18	0.0197063
3320.82	0.0185719
3330.46	0.0189951
3340.1	0.0183211
3349.75	0.0189963
3359.39	0.0195
3369.03	0.0192222
3378.67	0.0200886
3388.32	0.020997
3397.96	0.020132
3407.6	0.0201623
3417.24	0.0201673
3426.89	0.019382
3436.53	0.0194082
3446.17	0.0192706
3455.81	0.0191869
3465.45	0.0186211
3475.1	0.0189352
3484.74	0.018708
3494.38	0.0193814
3504.02	0.017941
3513.67	0.0191043
3523.31	0.0171829
3532.95	0.0204254
3542.59	0.0204421
3552.24	0.0195821
3561.88	0.0204294
3571.52	0.0182829
3581.16	0.0186696
3590.8	0.0190851
3600.45	0.0187804
3610.09	0.0171898
3619.73	0.0188984
3629.37	0.0164068
3639.02	0.0176516
3648.66	0.0159262
3658.3	0.0172467
3667.94	0.0174866
3677.59	0.0164778
3687.23	0.017122
3696.87	0.0181119
3706.51	0.016342
3716.16	0.0188251
3725.8	0.0171683
3735.44	0.0169013
3745.08	0.0155882
3754.72	0.0179852
3764.37	0.0180742
3774.01	0.0172704
3783.65	0.0177814
3793.29	0.0209033
3802.94	0.0183223
3812.58	0.0192051
3822.22	0.0185054
3831.86	0.0179504
3841.51	0.0196631
3851.15	0.0180877
3860.79	0.0195548
3870.43	0.0182196
3880.07	0.0183214
3889.72	0.02222
3899.36	0.019825
3909	0.0189758
3918.64	0.0196426
3928.29	0.0185938
3937.93	0.0214543
3947.57	0.0203771
3957.21	0.0218838
3966.86	0.0184364
3976.5	0.017607
3986.14	0.020435
3995.78	0.0171633
