Measurement: Infrared, Infrared Data Processed
Mineral: Aurichalcite
Rruff sample: R050297
Ideal chemistry: Zn^2+^_5_(CO_3_)_2_(OH)_6_
Locality: 79 mine, 4th level, Hayden, Gila County, Arizona, USA
Source: George Godas, John Callahan
Description: Sprays of greenish blue lathlike crystals
Measured chemistry: (Zn_0.68_Cu_0.32_)_5_(CO_3_)_2_(OH)_6_
x	intensity
399.193	0.167316
408.835	0.164869
418.477	0.128596
428.12	0.132888
437.762	0.13926
447.404	0.121219
457.047	0.1231
466.689	0.11997
476.331	0.110926
485.974	0.0931804
495.616	0.113376
505.258	0.114914
514.901	0.0962841
524.543	0.0738308
534.185	0.0674804
543.828	0.0481933
553.47	0.0309733
563.112	0.0250951
572.755	0.0224539
582.397	0.022438
592.039	0.0231688
601.682	0.0243146
611.324	0.0251009
620.966	0.0246537
630.609	0.0250367
640.251	0.0267691
649.893	0.0288572
659.536	0.0315898
669.178	0.035858
678.82	0.0399997
688.463	0.0455165
698.105	0.0621167
707.747	0.0718058
717.39	0.0685762
727.032	0.098672
736.674	0.120136
746.317	0.0876928
755.959	0.0890005
765.601	0.074182
775.244	0.0802699
784.886	0.0856732
794.528	0.0921603
804.171	0.104892
813.813	0.127895
823.455	0.169441
833.098	0.250131
842.74	0.200122
852.382	0.148931
862.025	0.146837
871.667	0.136047
881.309	0.119347
890.952	0.10299
900.594	0.0902308
910.236	0.0837964
919.879	0.0858323
929.521	0.0942954
939.163	0.0990694
948.806	0.0991859
958.448	0.107252
968.09	0.121307
977.733	0.126206
987.375	0.114007
997.017	0.0937639
1006.66	0.0794605
1016.3	0.0763828
1025.94	0.0806016
1035.59	0.0827805
1045.23	0.084065
1054.87	0.0879185
1064.51	0.092762
1074.16	0.0619584
1083.8	0.0498323
1093.44	0.0500251
1103.08	0.0505508
1112.72	0.0516652
1122.37	0.0535712
1132.01	0.0583311
1141.65	0.06507
1151.3	0.071487
1160.94	0.0764574
1170.58	0.0784702
1180.22	0.0797609
1189.86	0.0807303
1199.51	0.0836259
1209.15	0.0852308
1218.79	0.071961
1228.43	0.0521275
1238.08	0.0441298
1247.72	0.0444698
1257.36	0.0492865
1267	0.0571448
1276.64	0.0672807
1286.29	0.0793026
1295.93	0.0919554
1305.57	0.10888
1315.21	0.135256
1324.86	0.168022
1334.5	0.206122
1344.14	0.23953
1353.78	0.2686
1363.43	0.260938
1373.07	0.18366
1382.71	0.146967
1392.35	0.188015
1401.99	0.234629
1411.64	0.237547
1421.28	0.181048
1430.92	0.0997842
1440.57	0.0596896
1450.21	0.0658599
1459.85	0.0848161
1469.49	0.110192
1479.13	0.151597
1488.78	0.195912
1498.42	0.217571
1508.06	0.201992
1517.7	0.137506
1527.35	0.0877424
1536.99	0.0997792
1546.63	0.136029
1556.27	0.143355
1565.91	0.12398
1575.56	0.0893874
1585.2	0.0475225
1594.84	0.0283663
1604.48	0.0210558
1614.13	0.0153095
1623.77	0.0125108
1633.41	0.0113253
1643.05	0.0099417
1652.7	0.0107948
1662.34	0.00983194
1671.98	0.0101572
1681.62	0.0108229
1691.27	0.0103795
1700.91	0.0108403
1710.55	0.00982947
1720.19	0.0101241
1729.84	0.0096046
1739.48	0.00942408
1749.12	0.0096946
1758.76	0.0110695
1768.4	0.0140038
1778.05	0.013389
1787.69	0.0120593
1797.33	0.0121379
1806.97	0.0123144
1816.62	0.0132142
1826.26	0.0127287
1835.9	0.0117298
1845.54	0.0117234
1855.18	0.012008
1864.83	0.0119374
1874.47	0.0124808
1884.11	0.0128219
1893.75	0.0133506
1903.4	0.0142943
1913.04	0.0149171
1922.68	0.0153101
1932.32	0.0151262
1941.97	0.0157177
1951.61	0.0143985
1961.25	0.0132167
1970.89	0.013881
1980.54	0.014908
1990.18	0.0146235
1999.82	0.0152208
2009.46	0.0144385
2019.11	0.01461
2028.75	0.0169116
2038.39	0.0179346
2048.03	0.0189473
2057.67	0.0203171
2067.32	0.0223906
2076.96	0.023609
2086.6	0.0245894
2096.24	0.025267
2105.89	0.0260377
2115.53	0.0267151
2125.17	0.0259991
2134.81	0.0235981
2144.45	0.0212182
2154.1	0.0193451
2163.74	0.0206868
2173.38	0.0197338
2183.02	0.0189234
2192.67	0.0206007
2202.31	0.0202232
2211.95	0.0196024
2221.59	0.0195256
2231.24	0.0208155
2240.88	0.0211885
2250.52	0.0208627
2260.16	0.0219646
2269.8	0.0230936
2279.45	0.0241337
2289.09	0.0247556
2298.73	0.0251653
2308.38	0.0256671
2318.02	0.0268402
2327.66	0.0275769
2337.3	0.0272857
2346.94	0.0263008
2356.59	0.0264383
2366.23	0.0266852
2375.87	0.0246771
2385.51	0.0238743
2395.16	0.0239013
2404.8	0.0242544
2414.44	0.0243581
2424.08	0.0252098
2433.72	0.0256339
2443.37	0.0253821
2453.01	0.0257358
2462.65	0.0257597
2472.29	0.0257212
2481.94	0.0266801
2491.58	0.0266821
2501.22	0.0278754
2510.86	0.0280462
2520.51	0.0288048
2530.15	0.029485
2539.79	0.0303251
2549.43	0.0309877
2559.07	0.030985
2568.72	0.0307316
2578.36	0.0303515
2588	0.0304429
2597.64	0.0310608
2607.29	0.0316179
2616.93	0.0325894
2626.57	0.0332825
2636.21	0.0344658
2645.86	0.0349544
2655.5	0.035615
2665.14	0.0359206
2674.78	0.0356473
2684.43	0.0351988
2694.07	0.0349117
2703.71	0.0342847
2713.35	0.0337367
2722.99	0.0341366
2732.64	0.0352717
2742.28	0.03704
2751.92	0.0388033
2761.56	0.0404551
2771.21	0.042198
2780.85	0.0430901
2790.49	0.0439791
2800.13	0.0441858
2809.78	0.0440082
2819.42	0.0441904
2829.06	0.0441937
2838.7	0.0437558
2848.34	0.0420374
2857.99	0.0437324
2867.63	0.0461633
2877.27	0.0470261
2886.91	0.0468382
2896.56	0.0460514
2906.2	0.0446399
2915.84	0.0416723
2925.48	0.0405871
2935.13	0.0410526
2944.77	0.0406836
2954.41	0.0403633
2964.05	0.0405609
2973.7	0.0394411
2983.34	0.0396211
2992.98	0.0391803
3002.62	0.0395001
3012.26	0.040645
3021.91	0.0413182
3031.55	0.0430288
3041.19	0.044405
3050.83	0.0455596
3060.48	0.0470821
3070.12	0.0472444
3079.76	0.0492601
3089.4	0.0505938
3099.05	0.0517288
3108.69	0.0538117
3118.33	0.0565779
3127.97	0.0592336
3137.61	0.0625012
3147.26	0.0659152
3156.9	0.0709119
3166.54	0.0752279
3176.18	0.0807442
3185.83	0.0869696
3195.47	0.0938587
3205.11	0.101556
3214.75	0.108641
3224.4	0.113453
3234.04	0.120141
3243.68	0.12352
3253.32	0.1266
3262.97	0.128433
3272.61	0.132714
3282.25	0.137835
3291.89	0.143466
3301.53	0.146428
3311.18	0.1467
3320.82	0.145239
3330.46	0.143352
3340.1	0.141953
3349.75	0.137945
3359.39	0.132269
3369.03	0.124419
3378.67	0.11487
3388.32	0.104354
3397.96	0.0929705
3407.6	0.0810468
3417.24	0.0704473
3426.89	0.0602373
3436.53	0.0502688
3446.17	0.0417269
3455.81	0.0346157
3465.45	0.028938
3475.1	0.0234756
3484.74	0.0193521
3494.38	0.0168289
3504.02	0.0142362
3513.67	0.0116522
3523.31	0.00940094
3532.95	0.00876193
3542.59	0.00827795
3552.24	0.00720993
3561.88	0.00715564
3571.52	0.00615731
3581.16	0.00567176
3590.8	0.00476794
3600.45	0.00516192
3610.09	0.0058171
3619.73	0.00511292
3629.37	0.00592736
3639.02	0.00421659
3648.66	0.00667777
3658.3	0.00504008
3667.94	0.00487342
3677.59	0.00490493
3687.23	0.00597941
3696.87	0.00490964
3706.51	0.00527751
3716.16	0.00625671
3725.8	0.00547924
3735.44	0.00681348
3745.08	0.00776655
3754.72	0.00547997
3764.37	0.00626063
3774.01	0.00683385
3783.65	0.00624362
3793.29	0.00545706
3802.94	0.00718779
3812.58	0.0063332
3822.22	0.00717501
3831.86	0.00743873
3841.51	0.00681535
3851.15	0.00846328
3860.79	0.007135
3870.43	0.00756448
3880.07	0.00630905
3889.72	0.00768581
3899.36	0.0076292
3909	0.0078461
3918.64	0.00700749
3928.29	0.00701244
3937.93	0.00709294
3947.57	0.00730484
3957.21	0.00690584
3966.86	0.00653631
3976.5	0.00781837
3986.14	0.0076439
3995.78	0.00738913
