Measurement: Infrared, Infrared Data Processed
Mineral: Bakerite
Rruff sample: R050423
Ideal chemistry: Ca_4_B_5_(SiO_4_)_3_(O_3_(OH)_5_)
Locality: Corkscrew Canyon, Death Valley, California, USA
Source: Marcus Origlieri
Description: White fine-grained aggregate
Measured chemistry: Ca_4.00_(B_4.99_S_0.01_)_Σ=5_(Si_2.97_Al_0.03_)_Σ=3_O_15_(OH)_5_
x	intensity
399.193	0.0753327
408.835	0.103553
418.477	0.124396
428.12	0.12303
437.762	0.111602
447.404	0.120191
457.047	0.13461
466.689	0.15521
476.331	0.186296
485.974	0.232312
495.616	0.223734
505.258	0.198032
514.901	0.160393
524.543	0.146409
534.185	0.136981
543.828	0.112458
553.47	0.0963975
563.112	0.0902553
572.755	0.101107
582.397	0.0777589
592.039	0.0718503
601.682	0.0656445
611.324	0.0528188
620.966	0.0490506
630.609	0.0502376
640.251	0.0520025
649.893	0.0546292
659.536	0.056515
669.178	0.0646474
678.82	0.0821802
688.463	0.112184
698.105	0.124142
707.747	0.104858
717.39	0.11367
727.032	0.115239
736.674	0.127629
746.317	0.139812
755.959	0.148287
765.601	0.181409
775.244	0.226063
784.886	0.263383
794.528	0.21539
804.171	0.171412
813.813	0.18827
823.455	0.231347
833.098	0.280391
842.74	0.329213
852.382	0.362439
862.025	0.376918
871.667	0.399609
881.309	0.41449
890.952	0.416571
900.594	0.413006
910.236	0.396593
919.879	0.374854
929.521	0.361771
939.163	0.354334
948.806	0.333277
958.448	0.307503
968.09	0.294205
977.733	0.29601
987.375	0.301799
997.017	0.292951
1006.66	0.275474
1016.3	0.255533
1025.94	0.241191
1035.59	0.24954
1045.23	0.241298
1054.87	0.21413
1064.51	0.188477
1074.16	0.172664
1083.8	0.160811
1093.44	0.155847
1103.08	0.146545
1112.72	0.12595
1122.37	0.103038
1132.01	0.0853425
1141.65	0.0769565
1151.3	0.0807259
1160.94	0.0864825
1170.58	0.0849062
1180.22	0.0795365
1189.86	0.0647973
1199.51	0.0449713
1209.15	0.0319919
1218.79	0.0252889
1228.43	0.0219989
1238.08	0.0190729
1247.72	0.0173161
1257.36	0.0151127
1267	0.0139808
1276.64	0.0119936
1286.29	0.0107361
1295.93	0.00998262
1305.57	0.00973466
1315.21	0.01051
1324.86	0.0112008
1334.5	0.0137039
1344.14	0.016676
1353.78	0.0202619
1363.43	0.0226808
1373.07	0.0222848
1382.71	0.0191117
1392.35	0.015034
1401.99	0.0120145
1411.64	0.0103556
1421.28	0.00943874
1430.92	0.00882
1440.57	0.00807758
1450.21	0.00728716
1459.85	0.00657554
1469.49	0.00629656
1479.13	0.00630981
1488.78	0.0063353
1498.42	0.00540519
1508.06	0.00565329
1517.7	0.00532448
1527.35	0.00511281
1536.99	0.00534819
1546.63	0.00544095
1556.27	0.00583028
1565.91	0.00596653
1575.56	0.00563824
1585.2	0.00617338
1594.84	0.00591145
1604.48	0.00600076
1614.13	0.00596292
1623.77	0.00597391
1633.41	0.00577745
1643.05	0.00556768
1652.7	0.00556652
1662.34	0.00527573
1671.98	0.0046634
1681.62	0.00399823
1691.27	0.00365686
1700.91	0.00369198
1710.55	0.00322661
1720.19	0.00273801
1729.84	0.00211761
1739.48	0.000772543
1749.12	0.000859965
1758.76	0.00165283
1768.4	0.00216424
1778.05	0.00223896
1787.69	0.00173629
1797.33	0.00213395
1806.97	0.00154473
1816.62	0.00148844
1826.26	0.00293799
1835.9	0.00243152
1845.54	0.00253023
1855.18	0.000617147
1864.83	0.00175084
1874.47	0.000855376
1884.11	0.00119269
1893.75	-1.25495e-05
1903.4	0.000740362
1913.04	-6.35744e-05
1922.68	-0.000689144
1932.32	-0.00184703
1941.97	-0.00423933
1951.61	-0.00321916
1961.25	-0.0045671
1970.89	-0.00388269
1980.54	-0.004715
1990.18	-0.00335491
1999.82	-0.00421437
2009.46	-0.00785341
2019.11	-0.00447834
2028.75	-0.00421953
2038.39	-0.00359871
2048.03	-0.00448458
2057.67	-0.00378919
2067.32	-0.0037298
2076.96	-0.00160952
2086.6	-0.000983846
2096.24	-0.00264462
2105.89	-0.000281226
2115.53	-0.000397919
2125.17	-0.00300768
2134.81	-0.00511394
2144.45	-0.00642534
2154.1	-0.00935735
2163.74	-0.000973093
2173.38	-0.00727415
2183.02	-0.0019688
2192.67	-0.00334352
2202.31	-0.00119438
2211.95	-0.00385308
2221.59	-0.000389835
2231.24	0.0021413
2240.88	-4.72214e-05
2250.52	0.00164697
2260.16	0.0028592
2269.8	0.00290715
2279.45	0.00322498
2289.09	0.0048141
2298.73	0.00396814
2308.38	0.00394793
2318.02	0.00452932
2327.66	0.00485097
2337.3	0.00427026
2346.94	0.00512216
2356.59	0.00430212
2366.23	0.00453083
2375.87	0.0020567
2385.51	0.00342405
2395.16	0.003095
2404.8	0.00353176
2414.44	0.00308775
2424.08	0.00469437
2433.72	0.00511447
2443.37	0.0032126
2453.01	0.00416282
2462.65	0.00496735
2472.29	0.00385826
2481.94	0.0049304
2491.58	0.00423026
2501.22	0.00502
2510.86	0.00338163
2520.51	0.00477692
2530.15	0.00512623
2539.79	0.00495826
2549.43	0.00620271
2559.07	0.00612786
2568.72	0.00579344
2578.36	0.00581605
2588	0.00662463
2597.64	0.00736684
2607.29	0.00625564
2616.93	0.00761024
2626.57	0.00798993
2636.21	0.00848802
2645.86	0.00762182
2655.5	0.00803744
2665.14	0.00876062
2674.78	0.00945296
2684.43	0.00925275
2694.07	0.00945452
2703.71	0.00937391
2713.35	0.00851669
2722.99	0.00877302
2732.64	0.00890096
2742.28	0.00891617
2751.92	0.00793172
2761.56	0.00792463
2771.21	0.00798818
2780.85	0.00929857
2790.49	0.00791689
2800.13	0.00951259
2809.78	0.0101297
2819.42	0.00923733
2829.06	0.00837043
2838.7	0.0111195
2848.34	0.0106696
2857.99	0.0109964
2867.63	0.0103176
2877.27	0.0131348
2886.91	0.0115447
2896.56	0.0115222
2906.2	0.0136631
2915.84	0.0132626
2925.48	0.013139
2935.13	0.0127041
2944.77	0.0126508
2954.41	0.0141175
2964.05	0.0149395
2973.7	0.0152437
2983.34	0.015357
2992.98	0.0177872
3002.62	0.0173283
3012.26	0.0186795
3021.91	0.0182568
3031.55	0.019529
3041.19	0.0193529
3050.83	0.0198027
3060.48	0.0194099
3070.12	0.021337
3079.76	0.0233968
3089.4	0.0226555
3099.05	0.0202813
3108.69	0.0219439
3118.33	0.022766
3127.97	0.0244924
3137.61	0.0232634
3147.26	0.0222034
3156.9	0.0227715
3166.54	0.0217259
3176.18	0.0231138
3185.83	0.0226368
3195.47	0.0218698
3205.11	0.0209378
3214.75	0.0227376
3224.4	0.0217935
3234.04	0.0225368
3243.68	0.0202685
3253.32	0.0219609
3262.97	0.0220265
3272.61	0.0230185
3282.25	0.0208713
3291.89	0.0242722
3301.53	0.0230358
3311.18	0.0235609
3320.82	0.0254163
3330.46	0.0276933
3340.1	0.0259439
3349.75	0.029266
3359.39	0.0305659
3369.03	0.0311833
3378.67	0.0381675
3388.32	0.0407526
3397.96	0.0458733
3407.6	0.0517798
3417.24	0.054244
3426.89	0.0514922
3436.53	0.0438441
3446.17	0.0428788
3455.81	0.039689
3465.45	0.0467588
3475.1	0.0563275
3484.74	0.0884943
3494.38	0.079202
3504.02	0.0386748
3513.67	0.0245139
3523.31	0.0181677
3532.95	0.0174733
3542.59	0.0161954
3552.24	0.0164959
3561.88	0.0118151
3571.52	0.011376
3581.16	0.0114005
3590.8	0.0081997
3600.45	0.0114592
3610.09	0.00724804
3619.73	0.00510702
3629.37	0.00673547
3639.02	0.00887583
3648.66	0.00909911
3658.3	0.00450476
3667.94	0.00743599
3677.59	0.00621539
3687.23	0.00803883
3696.87	0.0050056
3706.51	0.00409496
3716.16	0.00409351
3725.8	0.00510186
3735.44	0.00905289
3745.08	0.00622756
3754.72	0.0112527
3764.37	0.00646461
3774.01	0.00194828
3783.65	0.00184632
3793.29	0.0100078
3802.94	0.0109913
3812.58	0.0112431
3822.22	0.00930421
3831.86	0.00659964
3841.51	0.00961345
3851.15	0.0106894
3860.79	0.00892592
3870.43	0.0055773
3880.07	0.00548362
3889.72	0.00661893
3899.36	0.00811895
3909	0.00636999
3918.64	0.00883191
3928.29	0.0113045
3937.93	0.00823085
3947.57	0.00997834
3957.21	0.0110436
3966.86	0.0103677
3976.5	0.00992914
3986.14	0.011531
3995.78	0.0107843
