Measurement: Infrared, Infrared Data Processed
Mineral: Barrerite
Rruff sample: R050135
Ideal chemistry: Na_2_(Al_2_Si_7_)O_18_6H_2_O
Locality: Kuiu Island, Alaska, USA
Source: Ben Norton
Description: Colorless laminar crystals
Measured chemistry: (Na_4.49_K_1.30_Ca_1.23_[box]_0.98_)_Σ=8_(Si_27.75_Al_8.25_)O_72_·19H_2_O
x	intensity
399.193	0.193378
408.835	0.192954
418.477	0.205401
428.12	0.217012
437.762	0.216916
447.404	0.190047
457.047	0.167168
466.689	0.145896
476.331	0.12719
485.974	0.116115
495.616	0.111885
505.258	0.111368
514.901	0.110015
524.543	0.111758
534.185	0.120119
543.828	0.130362
553.47	0.136403
563.112	0.135548
572.755	0.126417
582.397	0.114329
592.039	0.102735
601.682	0.0887372
611.324	0.0688407
620.966	0.0529678
630.609	0.0457915
640.251	0.0438413
649.893	0.0437395
659.536	0.045331
669.178	0.0473234
678.82	0.0488051
688.463	0.0504892
698.105	0.0541497
707.747	0.0564028
717.39	0.0555086
727.032	0.0532324
736.674	0.0509227
746.317	0.048632
755.959	0.0465043
765.601	0.0455155
775.244	0.0463575
784.886	0.0445705
794.528	0.0428524
804.171	0.0383318
813.813	0.0280892
823.455	0.0219352
833.098	0.0201948
842.74	0.0206113
852.382	0.0221374
862.025	0.0252268
871.667	0.0281185
881.309	0.0314029
890.952	0.0350288
900.594	0.0402866
910.236	0.0462748
919.879	0.0550021
929.521	0.0676158
939.163	0.086945
948.806	0.118348
958.448	0.167842
968.09	0.23741
977.733	0.313023
987.375	0.366851
997.017	0.391201
1006.66	0.398172
1016.3	0.395185
1025.94	0.380323
1035.59	0.352262
1045.23	0.316925
1054.87	0.278656
1064.51	0.236835
1074.16	0.1916
1083.8	0.15514
1093.44	0.131931
1103.08	0.11867
1112.72	0.11464
1122.37	0.116398
1132.01	0.119283
1141.65	0.118486
1151.3	0.111277
1160.94	0.100452
1170.58	0.0902148
1180.22	0.0811411
1189.86	0.0705575
1199.51	0.0547777
1209.15	0.0374062
1218.79	0.0240723
1228.43	0.0161631
1238.08	0.0118075
1247.72	0.00925355
1257.36	0.00750761
1267	0.00631549
1276.64	0.00559647
1286.29	0.00505071
1295.93	0.00462861
1305.57	0.00422238
1315.21	0.00391124
1324.86	0.00362203
1334.5	0.0035601
1344.14	0.00336621
1353.78	0.00325437
1363.43	0.00319209
1373.07	0.00294216
1382.71	0.00320162
1392.35	0.003151
1401.99	0.00313339
1411.64	0.0032971
1421.28	0.00328908
1430.92	0.00331439
1440.57	0.00310137
1450.21	0.00316329
1459.85	0.00306173
1469.49	0.00265142
1479.13	0.00251937
1488.78	0.00259083
1498.42	0.00252355
1508.06	0.00283216
1517.7	0.00263668
1527.35	0.00308223
1536.99	0.00318315
1546.63	0.00368231
1556.27	0.00416466
1565.91	0.00474471
1575.56	0.00521758
1585.2	0.00647984
1594.84	0.00809725
1604.48	0.0113795
1614.13	0.017997
1623.77	0.0287854
1633.41	0.036315
1643.05	0.0343623
1652.7	0.0284371
1662.34	0.0213182
1671.98	0.0152047
1681.62	0.0107573
1691.27	0.00744309
1700.91	0.00553627
1710.55	0.00373122
1720.19	0.00241367
1729.84	0.00119833
1739.48	0.000516982
1749.12	-4.51371e-05
1758.76	3.92613e-05
1768.4	3.73362e-05
1778.05	7.79917e-05
1787.69	-7.0988e-05
1797.33	-0.000137761
1806.97	-0.000535941
1816.62	-0.000327885
1826.26	-0.00033777
1835.9	-0.000261963
1845.54	-0.000955862
1855.18	-0.000802106
1864.83	-0.000513404
1874.47	-0.00121524
1884.11	-0.00117563
1893.75	-0.00139816
1903.4	-0.00122786
1913.04	-0.00157436
1922.68	-0.00176136
1932.32	-0.00200261
1941.97	-0.00168198
1951.61	-0.00353471
1961.25	-0.00257773
1970.89	-0.00339622
1980.54	-0.00188119
1990.18	-0.00299557
1999.82	-0.00450587
2009.46	-0.00408058
2019.11	-0.00533586
2028.75	-0.00515081
2038.39	-0.00366138
2048.03	-0.00374544
2057.67	-0.00409344
2067.32	-0.00539698
2076.96	-0.00331527
2086.6	-0.00476781
2096.24	-0.00431843
2105.89	-0.0037155
2115.53	-0.00330778
2125.17	-0.00412845
2134.81	-0.00363104
2144.45	-0.00168853
2154.1	-0.00185716
2163.74	0.00249112
2173.38	0.0015538
2183.02	0.00084615
2192.67	0.00137071
2202.31	0.000415803
2211.95	3.31318e-07
2221.59	-0.00133198
2231.24	-0.000669967
2240.88	-0.000552576
2250.52	-0.00187111
2260.16	-0.000635173
2269.8	-0.00139991
2279.45	-0.00210736
2289.09	-0.00203398
2298.73	-0.00277277
2308.38	-0.00305131
2318.02	-0.00261671
2327.66	-0.00331443
2337.3	-0.00338987
2346.94	-0.00372001
2356.59	-0.00306085
2366.23	-0.00300426
2375.87	-0.00326515
2385.51	-0.00323167
2395.16	-0.00339391
2404.8	-0.00333121
2414.44	-0.00305945
2424.08	-0.00303746
2433.72	-0.00271522
2443.37	-0.00268887
2453.01	-0.00229516
2462.65	-0.0022394
2472.29	-0.00243948
2481.94	-0.00199407
2491.58	-0.00298162
2501.22	-0.00167058
2510.86	-0.00234866
2520.51	-0.00259616
2530.15	-0.00196072
2539.79	-0.00267348
2549.43	-0.00201936
2559.07	-0.00212976
2568.72	-0.00197221
2578.36	-0.00237882
2588	-0.00257415
2597.64	-0.00228505
2607.29	-0.00264608
2616.93	-0.00297821
2626.57	-0.00227713
2636.21	-0.00209927
2645.86	-0.00278385
2655.5	-0.00274658
2665.14	-0.00243645
2674.78	-0.00329357
2684.43	-0.0027217
2694.07	-0.00305368
2703.71	-0.00308147
2713.35	-0.0030936
2722.99	-0.00261414
2732.64	-0.00337431
2742.28	-0.00260393
2751.92	-0.00298228
2761.56	-0.00282876
2771.21	-0.00213131
2780.85	-0.00245532
2790.49	-0.00212113
2800.13	-0.00243233
2809.78	-0.00206683
2819.42	-0.00156242
2829.06	-0.001843
2838.7	-0.00131023
2848.34	-0.00113427
2857.99	-0.00078568
2867.63	-0.000729856
2877.27	-0.00121749
2886.91	-0.000571532
2896.56	-0.00124208
2906.2	-0.000199305
2915.84	0.00089626
2925.48	0.000233888
2935.13	0.00107881
2944.77	-0.000523977
2954.41	0.000246646
2964.05	4.34272e-05
2973.7	0.000209706
2983.34	-0.000770264
2992.98	-9.49727e-05
3002.62	0.000207466
3012.26	0.00134049
3021.91	0.000832522
3031.55	0.00111854
3041.19	0.00224292
3050.83	0.00252377
3060.48	0.00292763
3070.12	0.00291007
3079.76	0.00397102
3089.4	0.00484602
3099.05	0.00509151
3108.69	0.00561522
3118.33	0.0069956
3127.97	0.00846138
3137.61	0.00980074
3147.26	0.00997899
3156.9	0.0109781
3166.54	0.0128021
3176.18	0.0132563
3185.83	0.0154253
3195.47	0.0165191
3205.11	0.0178129
3214.75	0.0202283
3224.4	0.0215704
3234.04	0.0220296
3243.68	0.023996
3253.32	0.0246107
3262.97	0.0242657
3272.61	0.0238905
3282.25	0.0262017
3291.89	0.0264124
3301.53	0.0283856
3311.18	0.0282161
3320.82	0.029984
3330.46	0.031455
3340.1	0.033127
3349.75	0.0345658
3359.39	0.0347973
3369.03	0.0378606
3378.67	0.0387972
3388.32	0.0400199
3397.96	0.0409751
3407.6	0.0418517
3417.24	0.0429641
3426.89	0.0430168
3436.53	0.0441744
3446.17	0.0427987
3455.81	0.0431319
3465.45	0.0417468
3475.1	0.0412506
3484.74	0.0412267
3494.38	0.040446
3504.02	0.038837
3513.67	0.0397972
3523.31	0.0411615
3532.95	0.0396924
3542.59	0.0394
3552.24	0.0383625
3561.88	0.0392478
3571.52	0.0370931
3581.16	0.0373752
3590.8	0.0369132
3600.45	0.0364915
3610.09	0.0329639
3619.73	0.0300951
3629.37	0.0239678
3639.02	0.0154982
3648.66	0.00991551
3658.3	0.00269176
3667.94	-0.00349986
3677.59	-0.00553675
3687.23	-0.00764675
3696.87	-0.00717844
3706.51	-0.00969303
3716.16	-0.00933438
3725.8	-0.0101465
3735.44	-0.0077498
3745.08	-0.00606442
3754.72	-0.00966822
3764.37	-0.00969849
3774.01	-0.0102221
3783.65	-0.0109367
3793.29	-0.010505
3802.94	-0.0105881
3812.58	-0.0101399
3822.22	-0.00858399
3831.86	-0.0104108
3841.51	-0.00985317
3851.15	-0.00995451
3860.79	-0.00989817
3870.43	-0.00927345
3880.07	-0.0106848
3889.72	-0.0105714
3899.36	-0.0097133
3909	-0.0094315
3918.64	-0.00981825
3928.29	-0.00876191
3937.93	-0.0121394
3947.57	-0.0121913
3957.21	-0.0111055
3966.86	-0.0110375
3976.5	-0.0106538
3986.14	-0.0114539
3995.78	-0.0113084
