Measurement: Infrared, Infrared Data Processed
Mineral: Beryl
Rruff sample: R050368
Ideal chemistry: Be_3_Al_2_Si_6_O_18_
Locality: Wah Wah Mountains, Utah, USA
Source: Eugene Schlepp
Description: Red-violet hexagonal prism
Measured chemistry: (Be_0.99_Li_0.01_)_3_(Al_0.95_Fe^3+^_0.05_)_2_Si_6.00_O_18_Î‡K_0.02_Na_0.01_
x	intensity
399.193	0.343711
408.835	0.351204
418.477	0.388969
428.12	0.383949
437.762	0.334032
447.404	0.285203
457.047	0.252271
466.689	0.25149
476.331	0.277429
485.974	0.296732
495.616	0.235513
505.258	0.210321
514.901	0.274254
524.543	0.235887
534.185	0.183118
543.828	0.130218
553.47	0.0911675
563.112	0.0778478
572.755	0.0981675
582.397	0.189254
592.039	0.199013
601.682	0.0991204
611.324	0.0722654
620.966	0.0781754
630.609	0.0913606
640.251	0.139436
649.893	0.206907
659.536	0.18505
669.178	0.274568
678.82	0.297855
688.463	0.206751
698.105	0.137059
707.747	0.117337
717.39	0.134015
727.032	0.166289
736.674	0.186397
746.317	0.166992
755.959	0.12883
765.601	0.111993
775.244	0.125246
784.886	0.162183
794.528	0.218294
804.171	0.240787
813.813	0.205222
823.455	0.156962
833.098	0.122356
842.74	0.106779
852.382	0.108212
862.025	0.120175
871.667	0.14307
881.309	0.169914
890.952	0.207207
900.594	0.253057
910.236	0.299664
919.879	0.337847
929.521	0.362917
939.163	0.376287
948.806	0.375859
958.448	0.34953
968.09	0.29228
977.733	0.234308
987.375	0.189019
997.017	0.163936
1006.66	0.163501
1016.3	0.163959
1025.94	0.130411
1035.59	0.10168
1045.23	0.0864738
1054.87	0.0774916
1064.51	0.0688604
1074.16	0.0610798
1083.8	0.0545792
1093.44	0.050838
1103.08	0.0499459
1112.72	0.050424
1122.37	0.0530716
1132.01	0.0585005
1141.65	0.0690179
1151.3	0.0857253
1160.94	0.114647
1170.58	0.149474
1180.22	0.18532
1189.86	0.234802
1199.51	0.265358
1209.15	0.243564
1218.79	0.197046
1228.43	0.157896
1238.08	0.125068
1247.72	0.0957793
1257.36	0.0694163
1267	0.0465344
1276.64	0.0304242
1286.29	0.0162883
1295.93	0.00967181
1305.57	0.00721487
1315.21	0.00611974
1324.86	0.00591055
1334.5	0.00508277
1344.14	0.00498328
1353.78	0.00460852
1363.43	0.00485479
1373.07	0.00471172
1382.71	0.00475142
1392.35	0.00582781
1401.99	0.00646296
1411.64	0.00725955
1421.28	0.00842185
1430.92	0.00836778
1440.57	0.00849732
1450.21	0.00869147
1459.85	0.00820933
1469.49	0.0079555
1479.13	0.00769415
1488.78	0.00739239
1498.42	0.0072586
1508.06	0.0066471
1517.7	0.00627236
1527.35	0.00601176
1536.99	0.00559999
1546.63	0.00487238
1556.27	0.00431338
1565.91	0.00436924
1575.56	0.00414741
1585.2	0.00342208
1594.84	0.00359884
1604.48	0.00322883
1614.13	0.00386781
1623.77	0.00390634
1633.41	0.00429817
1643.05	0.00400517
1652.7	0.00378482
1662.34	0.00331952
1671.98	0.00339906
1681.62	0.00323971
1691.27	0.00242098
1700.91	0.00244541
1710.55	0.00226579
1720.19	0.00215016
1729.84	0.00102724
1739.48	7.68902e-05
1749.12	0.000620782
1758.76	0.000763608
1768.4	0.00151135
1778.05	0.000484011
1787.69	0.000859181
1797.33	0.00131586
1806.97	0.00104151
1816.62	0.000180235
1826.26	0.000603346
1835.9	1.70936e-05
1845.54	-0.000462285
1855.18	-0.000990714
1864.83	-0.000952724
1874.47	-0.00143946
1884.11	-0.00179042
1893.75	-0.00154565
1903.4	-0.00176205
1913.04	-0.000555526
1922.68	-0.00244217
1932.32	-0.00274662
1941.97	-0.00340585
1951.61	-0.00455616
1961.25	-0.00511847
1970.89	-0.00508333
1980.54	-0.00334016
1990.18	-0.00475927
1999.82	-0.00696701
2009.46	-0.00852323
2019.11	-0.0080689
2028.75	-0.00671356
2038.39	-0.00614349
2048.03	-0.00341052
2057.67	-0.00215057
2067.32	-0.000423084
2076.96	-0.00109169
2086.6	-0.000450803
2096.24	0.00123474
2105.89	-0.00132653
2115.53	0.00131538
2125.17	-0.0017897
2134.81	-0.00419379
2144.45	-0.00360018
2154.1	-0.00104212
2163.74	-0.000104523
2173.38	-0.0005552
2183.02	0.00234212
2192.67	6.7496e-05
2202.31	0.000771035
2211.95	1.68571e-05
2221.59	-6.10947e-05
2231.24	0.00042201
2240.88	0.000734826
2250.52	0.00114694
2260.16	0.00186792
2269.8	0.00252223
2279.45	0.00310647
2289.09	0.00297864
2298.73	0.00429074
2308.38	0.00418001
2318.02	0.00430969
2327.66	0.00541522
2337.3	0.00421022
2346.94	0.00211426
2356.59	0.00337892
2366.23	0.00271491
2375.87	0.00134585
2385.51	-0.00109676
2395.16	-0.00053206
2404.8	-0.001555
2414.44	-0.00105235
2424.08	-0.00120258
2433.72	0.000419891
2443.37	0.000906395
2453.01	0.000220205
2462.65	0.000408229
2472.29	0.00074841
2481.94	-0.000276362
2491.58	0.000906928
2501.22	0.00109202
2510.86	0.00232187
2520.51	0.00219931
2530.15	0.00217328
2539.79	0.00348998
2549.43	0.00306249
2559.07	0.00328012
2568.72	0.00413781
2578.36	0.00432399
2588	0.00390699
2597.64	0.00516138
2607.29	0.00591412
2616.93	0.00645203
2626.57	0.00624494
2636.21	0.00629395
2645.86	0.00690659
2655.5	0.00567691
2665.14	0.00500376
2674.78	0.00543735
2684.43	0.00557956
2694.07	0.00487618
2703.71	0.00448277
2713.35	0.00565297
2722.99	0.0053519
2732.64	0.00549983
2742.28	0.00632218
2751.92	0.00595424
2761.56	0.00509226
2771.21	0.00599772
2780.85	0.00578637
2790.49	0.00649802
2800.13	0.00559243
2809.78	0.006574
2819.42	0.00737591
2829.06	0.00646193
2838.7	0.00765982
2848.34	0.00671548
2857.99	0.00645233
2867.63	0.00671519
2877.27	0.00647507
2886.91	0.00605099
2896.56	0.0070652
2906.2	0.0076318
2915.84	0.00863766
2925.48	0.00894041
2935.13	0.00794202
2944.77	0.00654429
2954.41	0.0088152
2964.05	0.00640967
2973.7	0.00742291
2983.34	0.00878407
2992.98	0.00890312
3002.62	0.00790503
3012.26	0.00750653
3021.91	0.00840738
3031.55	0.00768492
3041.19	0.00721251
3050.83	0.00808892
3060.48	0.00820396
3070.12	0.00933806
3079.76	0.00729012
3089.4	0.0105448
3099.05	0.00683234
3108.69	0.00946751
3118.33	0.0105037
3127.97	0.00804664
3137.61	0.012
3147.26	0.0113231
3156.9	0.0110876
3166.54	0.0118444
3176.18	0.0113901
3185.83	0.010782
3195.47	0.0130015
3205.11	0.0112536
3214.75	0.0117617
3224.4	0.011337
3234.04	0.0112394
3243.68	0.0115099
3253.32	0.0103243
3262.97	0.0105282
3272.61	0.0110761
3282.25	0.00966899
3291.89	0.0101438
3301.53	0.0114991
3311.18	0.0132234
3320.82	0.0148366
3330.46	0.0111111
3340.1	0.0114927
3349.75	0.0126093
3359.39	0.0108303
3369.03	0.0112275
3378.67	0.0123832
3388.32	0.0106008
3397.96	0.0107598
3407.6	0.0128233
3417.24	0.0120722
3426.89	0.0148987
3436.53	0.0123897
3446.17	0.00965946
3455.81	0.0115902
3465.45	0.0116634
3475.1	0.00973613
3484.74	0.0104738
3494.38	0.013033
3504.02	0.0138812
3513.67	0.0101927
3523.31	0.0103882
3532.95	0.00826554
3542.59	0.0072169
3552.24	0.0100775
3561.88	0.0108375
3571.52	0.0117208
3581.16	0.00639291
3590.8	0.00912572
3600.45	0.00441319
3610.09	0.00726439
3619.73	0.00720234
3629.37	0.00587521
3639.02	0.00999892
3648.66	0.0124307
3658.3	0.00633247
3667.94	0.00269425
3677.59	0.00471854
3687.23	0.0015735
3696.87	0.00530041
3706.51	0.00132495
3716.16	0.00227991
3725.8	0.00586861
3735.44	0.00856805
3745.08	-0.00193614
3754.72	0.00552229
3764.37	0.00264264
3774.01	0.00562167
3783.65	0.00412865
3793.29	0.00368978
3802.94	-0.000165942
3812.58	0.00155644
3822.22	0.00463562
3831.86	0.0054002
3841.51	0.00849301
3851.15	0.00735261
3860.79	0.00658935
3870.43	0.00299869
3880.07	0.00818253
3889.72	0.00342542
3899.36	0.00817088
3909	0.00324955
3918.64	0.00683005
3928.29	0.00652959
3937.93	0.0037847
3947.57	0.00276654
3957.21	0.00540717
3966.86	0.0051622
3976.5	0.00421637
3986.14	0.00436046
3995.78	0.00570878
