Measurement: Infrared, Infrared Data Processed
Mineral: Beryllonite
Rruff sample: R070249
Ideal chemistry: NaBePO_4_
Locality: Melrose Farm Beryllonite prospects (McAllister prospects),  Stoneham, Oxford County, Maine, USA
Source: Michael Scott
Description: Two colorless single crystal fragments
Measured chemistry: Na_1.00_Be_1.00_P_1.00_O_4_; Be estimated by difference
x	intensity
374.123	0.0122275
383.765	0.0204031
393.407	0.0237406
403.05	0.0270944
412.692	0.0337064
422.334	0.0407845
431.976	0.0388393
441.619	0.0456726
451.261	0.0559662
460.904	0.0692389
470.546	0.0661368
480.188	0.073201
489.83	0.070971
499.473	0.0846585
509.115	0.0874546
518.758	0.0889509
528.4	0.102307
538.042	0.104459
547.684	0.115985
557.327	0.125258
566.969	0.117372
576.611	0.101454
586.254	0.0951658
595.896	0.0569591
605.538	0.0238646
615.181	0.0160187
624.823	0.0256027
634.466	0.0395729
644.108	0.0265983
653.75	0.0393457
663.393	0.0600121
673.035	0.0854124
682.677	0.100983
692.319	0.0887017
701.962	0.0828956
711.604	0.0978497
721.246	0.0959178
730.889	0.0924026
740.531	0.093417
750.173	0.0694603
759.816	0.0856316
769.458	0.0991709
779.101	0.081152
788.743	0.0615205
798.385	0.0427457
808.028	0.0298614
817.67	0.0170855
827.312	0.0113857
836.955	0.00935461
846.597	0.00814334
856.239	0.00799804
865.881	0.00803907
875.524	0.00829325
885.166	0.00875008
894.808	0.00970699
904.451	0.0110528
914.093	0.0129756
923.736	0.0154491
933.378	0.0185595
943.02	0.0242209
952.663	0.0312961
962.305	0.0376242
971.947	0.0492675
981.59	0.0651968
991.232	0.0845981
1000.87	0.105864
1010.52	0.126361
1020.16	0.131226
1029.8	0.132634
1039.44	0.146457
1049.09	0.149612
1058.73	0.138263
1068.37	0.13721
1078.01	0.129173
1087.65	0.113319
1097.3	0.0983303
1106.94	0.0826811
1116.58	0.0692034
1126.22	0.0552119
1135.87	0.0446843
1145.51	0.0484267
1155.15	0.036705
1164.79	0.0278433
1174.44	0.0146938
1184.08	0.0091914
1193.72	0.00717372
1203.36	0.00596368
1213.01	0.00523132
1222.65	0.00441472
1232.29	0.00387005
1241.93	0.00351273
1251.58	0.00313433
1261.22	0.00297002
1270.86	0.00282466
1280.5	0.00254394
1290.14	0.00252414
1299.79	0.00243075
1309.43	0.0022358
1319.07	0.00202104
1328.71	0.00205112
1338.36	0.00187096
1348	0.00169174
1357.64	0.00169499
1367.28	0.00172937
1376.92	0.00182238
1386.57	0.00176137
1396.21	0.00178342
1405.85	0.00205023
1415.49	0.00204169
1425.14	0.00191285
1434.78	0.00175646
1444.42	0.00187121
1454.06	0.00187476
1463.71	0.00189799
1473.35	0.00182987
1482.99	0.00219981
1492.63	0.00228564
1502.28	0.00231851
1511.92	0.00237801
1521.56	0.00174912
1531.2	0.00217037
1540.85	0.00142072
1550.49	0.00213439
1560.13	0.00127584
1569.77	0.00187716
1579.41	0.00233956
1589.06	0.00226564
1598.7	0.00213816
1608.34	0.00204846
1617.98	0.00173533
1627.63	0.00206166
1637.27	0.00190332
1646.91	0.00162053
1656.55	0.00191254
1666.19	0.00195894
1675.84	0.0015019
1685.48	0.00131319
1695.12	0.00131412
1704.77	0.00186713
1714.41	0.00159142
1724.05	0.00177609
1733.69	0.000867172
1743.33	0.00187648
1752.98	0.00215402
1762.62	0.00217468
1772.26	0.00206214
1781.9	0.00225066
1791.55	0.00211305
1801.19	0.00241769
1810.83	0.00249436
1820.47	0.00242026
1830.12	0.00252547
1839.76	0.00241893
1849.4	0.00248422
1859.04	0.00246047
1868.68	0.00237388
1878.33	0.00275932
1887.97	0.00232205
1897.61	0.00275498
1907.25	0.00275179
1916.9	0.00236691
1926.54	0.002236
1936.18	0.00281064
1945.82	0.00256702
1955.46	0.00359296
1965.11	0.00295013
1974.75	0.0041669
1984.39	0.00242948
1994.04	0.00351447
2003.68	0.00155388
2013.32	0.00293918
2022.96	0.00356658
2032.6	0.00340385
2042.25	0.00456519
2051.89	0.00295837
2061.53	0.00351222
2071.17	0.00370062
2080.82	0.00289338
2090.46	0.00262833
2100.1	0.00313178
2109.74	0.00225213
2119.39	0.00244766
2129.03	0.00188314
2138.67	0.00269268
2148.31	0.00278031
2157.95	0.00396419
2167.6	0.00354331
2177.24	0.00462287
2186.88	0.00261843
2196.52	0.00329459
2206.17	0.00321836
2215.81	0.00390781
2225.45	0.00419389
2235.09	0.00487097
2244.74	0.00433867
2254.38	0.00377169
2264.02	0.00455506
2273.66	0.00462859
2283.3	0.00427629
2292.95	0.00393287
2302.59	0.00352208
2312.23	0.00327099
2321.87	0.00271925
2331.52	0.00194903
2341.16	0.00238562
2350.8	0.00256262
2360.44	0.00211411
2370.09	0.00253766
2379.73	0.00354588
2389.37	0.00424744
2399.01	0.0042096
2408.66	0.00416129
2418.3	0.00418661
2427.94	0.00465486
2437.58	0.00386792
2447.22	0.00400324
2456.87	0.00412031
2466.51	0.00449856
2476.15	0.00362184
2485.79	0.00411765
2495.44	0.00449653
2505.08	0.00445613
2514.72	0.00495443
2524.36	0.00391795
2534.01	0.00424605
2543.65	0.00439131
2553.29	0.00471741
2562.93	0.00483107
2572.57	0.00470371
2582.22	0.00480012
2591.86	0.00458003
2601.5	0.0045974
2611.14	0.00461001
2620.79	0.00441012
2630.43	0.00500937
2640.07	0.0045621
2649.71	0.00453848
2659.36	0.0042915
2669	0.00421741
2678.64	0.00443059
2688.28	0.00435214
2697.93	0.00415279
2707.57	0.00455015
2717.21	0.00422071
2726.85	0.00448952
2736.49	0.00473751
2746.14	0.00452248
2755.78	0.00425703
2765.42	0.00430505
2775.06	0.00438734
2784.71	0.00420704
2794.35	0.00440263
2803.99	0.00464938
2813.63	0.00412376
2823.28	0.00483945
2832.92	0.00503657
2842.56	0.00498395
2852.2	0.00487631
2861.84	0.00508103
2871.49	0.00475145
2881.13	0.00506069
2890.77	0.00477726
2900.41	0.00520638
2910.06	0.00533032
2919.7	0.00525844
2929.34	0.0057731
2938.98	0.0053972
2948.62	0.00532086
2958.27	0.00494023
2967.91	0.00504483
2977.55	0.00519071
2987.2	0.0051224
2996.84	0.00525143
3006.48	0.00460122
3016.12	0.00535656
3025.76	0.00453275
3035.41	0.00442795
3045.05	0.00527517
3054.69	0.00498274
3064.33	0.00515445
3073.98	0.00488682
3083.62	0.00583415
3093.26	0.00502108
3102.9	0.00591381
3112.55	0.00550078
3122.19	0.00509063
3131.83	0.00538517
3141.47	0.0052552
3151.11	0.00542726
3160.76	0.00521609
3170.4	0.00537064
3180.04	0.00568843
3189.68	0.00577462
3199.33	0.00533364
3208.97	0.00567237
3218.61	0.00562995
3228.25	0.00528157
3237.9	0.00589661
3247.54	0.00603928
3257.18	0.00576965
3266.82	0.00612855
3276.47	0.00590513
3286.11	0.00586539
3295.75	0.00686099
3305.39	0.0064408
3315.03	0.00575096
3324.68	0.00584021
3334.32	0.0066539
3343.96	0.00604247
3353.6	0.0057497
3363.25	0.00653388
3372.89	0.00579898
3382.53	0.00556655
3392.17	0.00602585
3401.82	0.00523906
3411.46	0.00570157
3421.1	0.00625951
3430.74	0.00549162
3440.39	0.00662585
3450.03	0.00569307
3459.67	0.00590114
3469.31	0.00663324
3478.95	0.00583089
3488.6	0.00634027
3498.24	0.00725499
3507.88	0.00718212
3517.52	0.00720501
3527.17	0.00650713
3536.81	0.00631578
3546.45	0.00691101
3556.09	0.005873
3565.74	0.0062018
3575.38	0.006722
3585.02	0.00691753
3594.66	0.00730164
3604.3	0.0061246
3613.95	0.00713978
3623.59	0.00613964
3633.23	0.00633412
3642.87	0.00769012
3652.52	0.0063478
3662.16	0.0068122
3671.8	0.00788002
3681.44	0.00576134
3691.09	0.00590089
3700.73	0.00655013
3710.37	0.00603167
3720.01	0.00597237
3729.66	0.00633742
3739.3	0.00566343
3748.94	0.00549558
3758.58	0.0059869
3768.22	0.00745784
3777.87	0.00536741
3787.51	0.00656245
3797.15	0.00686269
3806.79	0.00616281
3816.44	0.00404281
3826.08	0.00604428
3835.72	0.00459462
3845.36	0.00640191
3855.01	0.0044925
3864.65	0.00507696
3874.29	0.00621624
3883.93	0.00535965
3893.57	0.00601435
3903.22	0.00494466
3912.86	0.00628003
3922.5	0.00570103
3932.14	0.00634134
3941.79	0.00532629
3951.43	0.00603425
3961.07	0.00599869
3970.71	0.00624332
3980.36	0.0073416
3990	0.00631805
3999.64	0.0057671
