Measurement: Infrared, Infrared Data Processed
Mineral: Blodite
Rruff sample: R050317
Ideal chemistry: Na_2_Mg(S^6+^O_4_)_2_4H_2_O
Locality: Stassfurt, Germany
Source: American Museum of Natural History
Description: Colorless fragment
Measured chemistry: Na_2.00_Mg_1.00_(S_1.00_O_4_)_2_Â·4H_2_O
x	intensity
399.193	0.0692128
408.835	0.0740747
418.477	0.0806993
428.12	0.0883495
437.762	0.094243
447.404	0.0872722
457.047	0.0729103
466.689	0.070274
476.331	0.0630605
485.974	0.0518456
495.616	0.0458722
505.258	0.0467532
514.901	0.0485485
524.543	0.0519888
534.185	0.0572529
543.828	0.0638076
553.47	0.0757659
563.112	0.0895951
572.755	0.106853
582.397	0.130157
592.039	0.147058
601.682	0.157976
611.324	0.18056
620.966	0.158511
630.609	0.138479
640.251	0.130879
649.893	0.111756
659.536	0.107044
669.178	0.0948247
678.82	0.0871527
688.463	0.0857397
698.105	0.0870765
707.747	0.0902076
717.39	0.091095
727.032	0.0861815
736.674	0.0768519
746.317	0.0666968
755.959	0.058423
765.601	0.0523509
775.244	0.0501221
784.886	0.0500707
794.528	0.0523844
804.171	0.0571383
813.813	0.0647088
823.455	0.071029
833.098	0.0691247
842.74	0.058472
852.382	0.0474557
862.025	0.0423013
871.667	0.041664
881.309	0.0384952
890.952	0.0318216
900.594	0.0270011
910.236	0.0242172
919.879	0.02311
929.521	0.0224619
939.163	0.0224733
948.806	0.0229468
958.448	0.0242029
968.09	0.0264217
977.733	0.030633
987.375	0.0463554
997.017	0.0750979
1006.66	0.0369653
1016.3	0.0436683
1025.94	0.056543
1035.59	0.0762355
1045.23	0.10793
1054.87	0.158854
1064.51	0.228967
1074.16	0.300275
1083.8	0.343049
1093.44	0.33809
1103.08	0.306557
1112.72	0.295753
1122.37	0.306153
1132.01	0.247578
1141.65	0.197463
1151.3	0.269071
1160.94	0.247824
1170.58	0.159243
1180.22	0.0923817
1189.86	0.0494975
1199.51	0.0253185
1209.15	0.0148418
1218.79	0.0111188
1228.43	0.00894443
1238.08	0.00808467
1247.72	0.0070811
1257.36	0.00694693
1267	0.00686314
1276.64	0.00620572
1286.29	0.0062304
1295.93	0.00621805
1305.57	0.00613141
1315.21	0.00604248
1324.86	0.00599056
1334.5	0.0064755
1344.14	0.00602435
1353.78	0.0062176
1363.43	0.00632562
1373.07	0.00641772
1382.71	0.00722717
1392.35	0.00709997
1401.99	0.00769631
1411.64	0.00795063
1421.28	0.00831965
1430.92	0.00884804
1440.57	0.00881955
1450.21	0.00845421
1459.85	0.0080088
1469.49	0.00846607
1479.13	0.00991526
1488.78	0.00986654
1498.42	0.0107037
1508.06	0.0111964
1517.7	0.0118111
1527.35	0.0128244
1536.99	0.0143437
1546.63	0.0157451
1556.27	0.0176378
1565.91	0.0187896
1575.56	0.0200437
1585.2	0.0200098
1594.84	0.0196615
1604.48	0.0188122
1614.13	0.0182315
1623.77	0.0189065
1633.41	0.0202828
1643.05	0.0237655
1652.7	0.0295557
1662.34	0.0392939
1671.98	0.0452341
1681.62	0.0369026
1691.27	0.0256874
1700.91	0.0179246
1710.55	0.0134677
1720.19	0.0112106
1729.84	0.00982083
1739.48	0.00698568
1749.12	0.00693708
1758.76	0.0091276
1768.4	0.0110391
1778.05	0.0106197
1787.69	0.0092809
1797.33	0.00850963
1806.97	0.00730418
1816.62	0.00691574
1826.26	0.00584802
1835.9	0.00704249
1845.54	0.0052632
1855.18	0.0059461
1864.83	0.00650715
1874.47	0.00566079
1884.11	0.00439882
1893.75	0.00495275
1903.4	0.00627314
1913.04	0.00729907
1922.68	0.00503328
1932.32	0.00465784
1941.97	0.00549168
1951.61	0.00614408
1961.25	0.00317936
1970.89	0.00714371
1980.54	0.00552936
1990.18	0.00250847
1999.82	0.00693705
2009.46	0.00542096
2019.11	0.00649986
2028.75	0.00923812
2038.39	0.0068464
2048.03	0.00764525
2057.67	0.00473947
2067.32	0.00895881
2076.96	0.00809967
2086.6	0.00914588
2096.24	0.00642943
2105.89	0.00615591
2115.53	0.00592303
2125.17	0.00523465
2134.81	0.00161097
2144.45	-0.00101922
2154.1	-0.00240542
2163.74	0.000499262
2173.38	-0.000189447
2183.02	-0.00102895
2192.67	0.000876731
2202.31	-0.00066782
2211.95	0.00234597
2221.59	0.00262926
2231.24	0.00341996
2240.88	0.00293787
2250.52	0.00261303
2260.16	0.00368994
2269.8	0.00625006
2279.45	0.00801682
2289.09	0.00813064
2298.73	0.00666788
2308.38	0.00739901
2318.02	0.00830432
2327.66	0.00827525
2337.3	0.00858848
2346.94	0.00767134
2356.59	0.00948738
2366.23	0.00857775
2375.87	0.00942248
2385.51	0.00958246
2395.16	0.00942328
2404.8	0.00870785
2414.44	0.00927129
2424.08	0.00861198
2433.72	0.00753909
2443.37	0.00875224
2453.01	0.00970733
2462.65	0.00780491
2472.29	0.00736728
2481.94	0.00867807
2491.58	0.0090394
2501.22	0.0101111
2510.86	0.00975855
2520.51	0.0095425
2530.15	0.00995887
2539.79	0.010193
2549.43	0.0101522
2559.07	0.00910208
2568.72	0.0105027
2578.36	0.00813513
2588	0.0107856
2597.64	0.0109969
2607.29	0.0106326
2616.93	0.00927927
2626.57	0.0110047
2636.21	0.0106483
2645.86	0.0120452
2655.5	0.0115344
2665.14	0.00995273
2674.78	0.0107971
2684.43	0.0107806
2694.07	0.0107868
2703.71	0.0105788
2713.35	0.012691
2722.99	0.0124565
2732.64	0.0111944
2742.28	0.0118314
2751.92	0.0140634
2761.56	0.0137135
2771.21	0.0135726
2780.85	0.0145639
2790.49	0.0157708
2800.13	0.015469
2809.78	0.0164803
2819.42	0.0168639
2829.06	0.0181893
2838.7	0.0165666
2848.34	0.0178126
2857.99	0.0200995
2867.63	0.0211569
2877.27	0.0234694
2886.91	0.0233658
2896.56	0.0252437
2906.2	0.0248892
2915.84	0.0268682
2925.48	0.0286078
2935.13	0.0325614
2944.77	0.0326004
2954.41	0.0317898
2964.05	0.036096
2973.7	0.0377678
2983.34	0.0417007
2992.98	0.042828
3002.62	0.04677
3012.26	0.049792
3021.91	0.0544822
3031.55	0.0553106
3041.19	0.0612984
3050.83	0.0658901
3060.48	0.069503
3070.12	0.0754708
3079.76	0.082044
3089.4	0.0886759
3099.05	0.0949918
3108.69	0.0999266
3118.33	0.108499
3127.97	0.116128
3137.61	0.12912
3147.26	0.138614
3156.9	0.146516
3166.54	0.152081
3176.18	0.150733
3185.83	0.147729
3195.47	0.135693
3205.11	0.128378
3214.75	0.120645
3224.4	0.117745
3234.04	0.109589
3243.68	0.10732
3253.32	0.102937
3262.97	0.105831
3272.61	0.103159
3282.25	0.10382
3291.89	0.100516
3301.53	0.100585
3311.18	0.103413
3320.82	0.104158
3330.46	0.102718
3340.1	0.103136
3349.75	0.103312
3359.39	0.100566
3369.03	0.0998885
3378.67	0.0948793
3388.32	0.093034
3397.96	0.0974048
3407.6	0.0920135
3417.24	0.090981
3426.89	0.0875013
3436.53	0.0864966
3446.17	0.0829495
3455.81	0.0779531
3465.45	0.0760105
3475.1	0.0703745
3484.74	0.064947
3494.38	0.057572
3504.02	0.0506772
3513.67	0.047934
3523.31	0.0416285
3532.95	0.0382002
3542.59	0.029881
3552.24	0.0266163
3561.88	0.0257323
3571.52	0.0198976
3581.16	0.0136285
3590.8	0.0163321
3600.45	0.0102027
3610.09	0.0103526
3619.73	0.00865657
3629.37	0.0104913
3639.02	0.0078701
3648.66	0.00929768
3658.3	0.00894359
3667.94	0.011136
3677.59	0.00699823
3687.23	0.0113316
3696.87	0.00496002
3706.51	0.00828381
3716.16	0.00627352
3725.8	0.00992831
3735.44	0.0131125
3745.08	0.0131636
3754.72	0.00943507
3764.37	0.0118846
3774.01	0.0121554
3783.65	0.0126013
3793.29	0.0132707
3802.94	0.00674263
3812.58	0.00683887
3822.22	0.00657375
3831.86	0.00792853
3841.51	0.0101309
3851.15	0.00852023
3860.79	0.0109172
3870.43	0.00716081
3880.07	0.0125537
3889.72	0.0128192
3899.36	0.00953434
3909	0.00901603
3918.64	0.00924073
3928.29	0.0124071
3937.93	0.0119675
3947.57	0.00965657
3957.21	0.00422353
3966.86	0.00906503
3976.5	0.00810587
3986.14	0.0142145
3995.78	0.0107949
