Measurement: Infrared, Infrared Data Processed
Mineral: Boulangerite
Rruff sample: R050441
Ideal chemistry: Pb^2+^_5_Sb^3+^_4_S^2-^_11_
Locality: Sullivan mine, Kimberley, British Columbia, Canada
Source: University of Arizona Mineral Museum
Description: Lead-gray metallic massive
Measured chemistry: Pb_5.00_(Sb_3.99_As_0.01_)_Î£=4_S_11.00_
x	intensity
399.193	0.277231
408.835	0.28435
418.477	0.306402
428.12	0.315963
437.762	0.319663
447.404	0.339846
457.047	0.344076
466.689	0.346099
476.331	0.353287
485.974	0.361739
495.616	0.368625
505.258	0.380114
514.901	0.384279
524.543	0.389863
534.185	0.394917
543.828	0.401015
553.47	0.408132
563.112	0.410985
572.755	0.417399
582.397	0.423888
592.039	0.430732
601.682	0.435529
611.324	0.44123
620.966	0.445578
630.609	0.451381
640.251	0.45459
649.893	0.457712
659.536	0.460839
669.178	0.46528
678.82	0.468287
688.463	0.472288
698.105	0.476689
707.747	0.4816
717.39	0.487935
727.032	0.492164
736.674	0.49536
746.317	0.498246
755.959	0.502143
765.601	0.505669
775.244	0.508975
784.886	0.513782
794.528	0.518581
804.171	0.5229
813.813	0.526439
823.455	0.530552
833.098	0.535915
842.74	0.541268
852.382	0.544192
862.025	0.55062
871.667	0.554871
881.309	0.554961
890.952	0.557036
900.594	0.560835
910.236	0.56514
919.879	0.569162
929.521	0.573362
939.163	0.577146
948.806	0.582855
958.448	0.585923
968.09	0.590028
977.733	0.594834
987.375	0.597949
997.017	0.600703
1006.66	0.605857
1016.3	0.610586
1025.94	0.614269
1035.59	0.617785
1045.23	0.621881
1054.87	0.625182
1064.51	0.630257
1074.16	0.634451
1083.8	0.637183
1093.44	0.642262
1103.08	0.645485
1112.72	0.649079
1122.37	0.653299
1132.01	0.659583
1141.65	0.667196
1151.3	0.669392
1160.94	0.669099
1170.58	0.669576
1180.22	0.6721
1189.86	0.675686
1199.51	0.679851
1209.15	0.680982
1218.79	0.682821
1228.43	0.686415
1238.08	0.688568
1247.72	0.692139
1257.36	0.692669
1267	0.693868
1276.64	0.698121
1286.29	0.701556
1295.93	0.704857
1305.57	0.707667
1315.21	0.711045
1324.86	0.714444
1334.5	0.71804
1344.14	0.722053
1353.78	0.726296
1363.43	0.732018
1373.07	0.735753
1382.71	0.740556
1392.35	0.743524
1401.99	0.747791
1411.64	0.753958
1421.28	0.757384
1430.92	0.759344
1440.57	0.761308
1450.21	0.763401
1459.85	0.766502
1469.49	0.763946
1479.13	0.765258
1488.78	0.766769
1498.42	0.769472
1508.06	0.77116
1517.7	0.772821
1527.35	0.773712
1536.99	0.775581
1546.63	0.777194
1556.27	0.778457
1565.91	0.781502
1575.56	0.784584
1585.2	0.787684
1594.84	0.789455
1604.48	0.792285
1614.13	0.794052
1623.77	0.797944
1633.41	0.801224
1643.05	0.803698
1652.7	0.80577
1662.34	0.808159
1671.98	0.811353
1681.62	0.813097
1691.27	0.816354
1700.91	0.81879
1710.55	0.823041
1720.19	0.825329
1729.84	0.829113
1739.48	0.829912
1749.12	0.831562
1758.76	0.831474
1768.4	0.835433
1778.05	0.83717
1787.69	0.839694
1797.33	0.840572
1806.97	0.842437
1816.62	0.842737
1826.26	0.845386
1835.9	0.846769
1845.54	0.847556
1855.18	0.848717
1864.83	0.852105
1874.47	0.85338
1884.11	0.854009
1893.75	0.856441
1903.4	0.858279
1913.04	0.857152
1922.68	0.858045
1932.32	0.854393
1941.97	0.849314
1951.61	0.851059
1961.25	0.84142
1970.89	0.834107
1980.54	0.838496
1990.18	0.84499
1999.82	0.845625
2009.46	0.842954
2019.11	0.846836
2028.75	0.844831
2038.39	0.85296
2048.03	0.864368
2057.67	0.87874
2067.32	0.885919
2076.96	0.891775
2086.6	0.89792
2096.24	0.898678
2105.89	0.899975
2115.53	0.906201
2125.17	0.903231
2134.81	0.88795
2144.45	0.888158
2154.1	0.878551
2163.74	0.885695
2173.38	0.888566
2183.02	0.897404
2192.67	0.910977
2202.31	0.914059
2211.95	0.914259
2221.59	0.921013
2231.24	0.922146
2240.88	0.934236
2250.52	0.940021
2260.16	0.948586
2269.8	0.950011
2279.45	0.955445
2289.09	0.963381
2298.73	0.971349
2308.38	0.97699
2318.02	0.981385
2327.66	0.986219
2337.3	0.985454
2346.94	0.98992
2356.59	0.993175
2366.23	0.9909
2375.87	0.994942
2385.51	0.997
2395.16	0.999102
2404.8	0.997946
2414.44	0.996172
2424.08	0.999352
2433.72	1.00498
2443.37	1.00549
2453.01	1.01033
2462.65	1.01038
2472.29	1.01368
2481.94	1.01839
2491.58	1.01984
2501.22	1.02293
2510.86	1.0256
2520.51	1.03002
2530.15	1.02931
2539.79	1.0317
2549.43	1.03189
2559.07	1.03864
2568.72	1.04269
2578.36	1.04537
2588	1.04648
2597.64	1.0489
2607.29	1.05569
2616.93	1.05956
2626.57	1.06045
2636.21	1.0646
2645.86	1.07083
2655.5	1.07168
2665.14	1.07417
2674.78	1.0785
2684.43	1.07984
2694.07	1.08416
2703.71	1.08601
2713.35	1.08754
2722.99	1.08965
2732.64	1.09451
2742.28	1.09353
2751.92	1.09986
2761.56	1.09727
2771.21	1.10196
2780.85	1.10412
2790.49	1.10787
2800.13	1.11135
2809.78	1.11122
2819.42	1.11573
2829.06	1.11994
2838.7	1.12495
2848.34	1.12889
2857.99	1.12956
2867.63	1.13169
2877.27	1.13327
2886.91	1.13515
2896.56	1.14313
2906.2	1.14741
2915.84	1.14923
2925.48	1.14624
2935.13	1.14705
2944.77	1.14661
2954.41	1.15001
2964.05	1.1534
2973.7	1.15315
2983.34	1.15043
2992.98	1.15228
3002.62	1.1573
3012.26	1.15668
3021.91	1.1619
3031.55	1.1643
3041.19	1.16877
3050.83	1.16711
3060.48	1.16998
3070.12	1.17365
3079.76	1.17963
3089.4	1.18195
3099.05	1.18769
3108.69	1.18792
3118.33	1.19026
3127.97	1.19018
3137.61	1.19276
3147.26	1.19621
3156.9	1.20213
3166.54	1.20318
3176.18	1.20493
3185.83	1.20728
3195.47	1.21154
3205.11	1.21436
3214.75	1.21522
3224.4	1.21957
3234.04	1.22546
3243.68	1.22646
3253.32	1.23085
3262.97	1.23148
3272.61	1.23491
3282.25	1.24028
3291.89	1.24469
3301.53	1.24951
3311.18	1.2513
3320.82	1.25845
3330.46	1.26025
3340.1	1.25854
3349.75	1.26097
3359.39	1.26324
3369.03	1.26722
3378.67	1.27341
3388.32	1.27409
3397.96	1.27697
3407.6	1.28198
3417.24	1.28079
3426.89	1.28587
3436.53	1.28709
3446.17	1.29773
3455.81	1.29883
3465.45	1.29891
3475.1	1.30031
3484.74	1.30342
3494.38	1.30549
3504.02	1.31219
3513.67	1.31013
3523.31	1.31267
3532.95	1.32468
3542.59	1.31186
3552.24	1.31571
3561.88	1.31969
3571.52	1.33013
3581.16	1.3268
3590.8	1.33211
3600.45	1.33291
3610.09	1.33081
3619.73	1.33834
3629.37	1.34318
3639.02	1.34439
3648.66	1.35427
3658.3	1.35508
3667.94	1.36007
3677.59	1.35742
3687.23	1.36188
3696.87	1.36653
3706.51	1.36835
3716.16	1.37008
3725.8	1.37118
3735.44	1.3757
3745.08	1.38416
3754.72	1.37745
3764.37	1.38416
3774.01	1.39269
3783.65	1.39293
3793.29	1.39809
3802.94	1.40647
3812.58	1.39816
3822.22	1.40885
3831.86	1.4134
3841.51	1.40897
3851.15	1.41925
3860.79	1.41687
3870.43	1.41988
3880.07	1.4219
3889.72	1.43249
3899.36	1.42815
3909	1.44055
3918.64	1.44207
3928.29	1.43449
3937.93	1.44793
3947.57	1.44328
3957.21	1.45375
3966.86	1.44916
3976.5	1.45723
3986.14	1.4699
3995.78	1.46144
