Measurement: Infrared, Infrared Data Processed
Mineral: Braunite
Rruff sample: R050385
Ideal chemistry: Mn^2+^Mn^3+^_6_SiO_12_
Locality: Jhabua District, Madhya Pradesh, India
Source: University of Arizona Mineral Museum
Description: Black prismatic crystals
Measured chemistry: (Fe^2+^_0.61_Mn^2+^_0.39_)_Σ=1_(Mn^3+^_5.94_Al_0.06_)_Σ=6_Si_1.00_O_12_
x	intensity
399.193	0.245207
408.835	0.266424
418.477	0.281746
428.12	0.312136
437.762	0.320905
447.404	0.318688
457.047	0.308899
466.689	0.325289
476.331	0.316044
485.974	0.319359
495.616	0.350218
505.258	0.346451
514.901	0.321405
524.543	0.279546
534.185	0.239471
543.828	0.255312
553.47	0.245126
563.112	0.19523
572.755	0.216898
582.397	0.294495
592.039	0.347687
601.682	0.355545
611.324	0.320214
620.966	0.274867
630.609	0.234553
640.251	0.200204
649.893	0.169012
659.536	0.142875
669.178	0.123642
678.82	0.112717
688.463	0.109561
698.105	0.121235
707.747	0.12306
717.39	0.0880823
727.032	0.0603506
736.674	0.0463888
746.317	0.0373933
755.959	0.0328319
765.601	0.0322267
775.244	0.03175
784.886	0.0330691
794.528	0.0340257
804.171	0.0369175
813.813	0.0393691
823.455	0.0427104
833.098	0.0461472
842.74	0.0509644
852.382	0.0572443
862.025	0.0647278
871.667	0.0764757
881.309	0.0939057
890.952	0.120635
900.594	0.159745
910.236	0.193612
919.879	0.25487
929.521	0.326831
939.163	0.355764
948.806	0.339641
958.448	0.271052
968.09	0.174972
977.733	0.0923434
987.375	0.0437302
997.017	0.0278855
1006.66	0.02241
1016.3	0.0206441
1025.94	0.0209509
1035.59	0.0218012
1045.23	0.0229371
1054.87	0.0249806
1064.51	0.0274231
1074.16	0.0305602
1083.8	0.0335661
1093.44	0.0366461
1103.08	0.0368021
1112.72	0.0383843
1122.37	0.0406129
1132.01	0.0421439
1141.65	0.0418852
1151.3	0.0415387
1160.94	0.0428152
1170.58	0.0450698
1180.22	0.0485748
1189.86	0.0504669
1199.51	0.0493383
1209.15	0.0481103
1218.79	0.0483585
1228.43	0.0488957
1238.08	0.0498214
1247.72	0.0517487
1257.36	0.0532401
1267	0.055835
1276.64	0.0578617
1286.29	0.0592675
1295.93	0.0611689
1305.57	0.0631024
1315.21	0.0655106
1324.86	0.0671676
1334.5	0.0694847
1344.14	0.0714634
1353.78	0.0735219
1363.43	0.0756113
1373.07	0.0772726
1382.71	0.0787323
1392.35	0.0812112
1401.99	0.0830611
1411.64	0.0844793
1421.28	0.0868784
1430.92	0.0888297
1440.57	0.0906232
1450.21	0.0919864
1459.85	0.0929302
1469.49	0.0939416
1479.13	0.0942707
1488.78	0.0953528
1498.42	0.0968341
1508.06	0.0985398
1517.7	0.0991126
1527.35	0.101247
1536.99	0.102999
1546.63	0.104437
1556.27	0.106037
1565.91	0.106928
1575.56	0.108214
1585.2	0.109154
1594.84	0.11025
1604.48	0.110901
1614.13	0.112305
1623.77	0.113077
1633.41	0.114491
1643.05	0.115796
1652.7	0.116034
1662.34	0.117572
1671.98	0.118283
1681.62	0.118911
1691.27	0.119734
1700.91	0.12069
1710.55	0.121274
1720.19	0.123191
1729.84	0.12393
1739.48	0.124273
1749.12	0.124409
1758.76	0.125468
1768.4	0.12763
1778.05	0.127796
1787.69	0.130015
1797.33	0.129884
1806.97	0.132303
1816.62	0.132551
1826.26	0.133369
1835.9	0.134713
1845.54	0.136409
1855.18	0.137263
1864.83	0.137168
1874.47	0.138561
1884.11	0.137764
1893.75	0.138949
1903.4	0.140299
1913.04	0.139582
1922.68	0.139613
1932.32	0.140961
1941.97	0.142537
1951.61	0.141154
1961.25	0.143501
1970.89	0.147861
1980.54	0.149436
1990.18	0.148379
1999.82	0.149764
2009.46	0.152468
2019.11	0.15063
2028.75	0.154206
2038.39	0.151416
2048.03	0.159674
2057.67	0.156375
2067.32	0.160124
2076.96	0.162454
2086.6	0.159053
2096.24	0.159428
2105.89	0.162622
2115.53	0.164432
2125.17	0.162507
2134.81	0.159696
2144.45	0.161228
2154.1	0.157382
2163.74	0.164952
2173.38	0.165072
2183.02	0.163092
2192.67	0.167539
2202.31	0.16768
2211.95	0.169054
2221.59	0.169623
2231.24	0.167766
2240.88	0.172535
2250.52	0.171665
2260.16	0.17233
2269.8	0.17505
2279.45	0.177309
2289.09	0.177652
2298.73	0.177284
2308.38	0.178052
2318.02	0.177419
2327.66	0.178186
2337.3	0.17884
2346.94	0.178339
2356.59	0.180458
2366.23	0.179451
2375.87	0.180502
2385.51	0.181776
2395.16	0.182463
2404.8	0.181093
2414.44	0.184449
2424.08	0.183738
2433.72	0.183813
2443.37	0.185448
2453.01	0.186742
2462.65	0.187057
2472.29	0.186019
2481.94	0.18877
2491.58	0.186687
2501.22	0.188777
2510.86	0.188121
2520.51	0.190564
2530.15	0.191141
2539.79	0.192106
2549.43	0.191275
2559.07	0.191783
2568.72	0.192403
2578.36	0.193896
2588	0.19568
2597.64	0.194879
2607.29	0.195239
2616.93	0.19715
2626.57	0.198302
2636.21	0.197461
2645.86	0.199167
2655.5	0.199223
2665.14	0.199317
2674.78	0.20008
2684.43	0.201929
2694.07	0.201717
2703.71	0.202478
2713.35	0.20351
2722.99	0.203256
2732.64	0.203501
2742.28	0.203933
2751.92	0.205231
2761.56	0.205079
2771.21	0.206821
2780.85	0.206199
2790.49	0.206313
2800.13	0.206342
2809.78	0.20747
2819.42	0.209779
2829.06	0.209798
2838.7	0.209887
2848.34	0.209368
2857.99	0.207258
2867.63	0.209658
2877.27	0.208985
2886.91	0.209811
2896.56	0.21208
2906.2	0.210749
2915.84	0.210838
2925.48	0.209766
2935.13	0.209802
2944.77	0.212065
2954.41	0.211714
2964.05	0.212125
2973.7	0.209932
2983.34	0.2121
2992.98	0.212934
3002.62	0.213454
3012.26	0.214917
3021.91	0.216119
3031.55	0.216801
3041.19	0.218287
3050.83	0.219372
3060.48	0.219829
3070.12	0.219371
3079.76	0.219063
3089.4	0.220587
3099.05	0.221623
3108.69	0.222821
3118.33	0.222113
3127.97	0.223422
3137.61	0.225138
3147.26	0.223422
3156.9	0.225652
3166.54	0.228393
3176.18	0.228711
3185.83	0.226656
3195.47	0.226994
3205.11	0.227312
3214.75	0.22659
3224.4	0.229027
3234.04	0.228736
3243.68	0.228974
3253.32	0.227538
3262.97	0.230195
3272.61	0.231002
3282.25	0.231934
3291.89	0.229466
3301.53	0.232754
3311.18	0.233396
3320.82	0.231957
3330.46	0.234435
3340.1	0.234008
3349.75	0.234212
3359.39	0.235277
3369.03	0.234379
3378.67	0.233994
3388.32	0.232801
3397.96	0.235801
3407.6	0.234165
3417.24	0.236674
3426.89	0.234749
3436.53	0.237528
3446.17	0.23454
3455.81	0.237532
3465.45	0.234981
3475.1	0.234955
3484.74	0.239569
3494.38	0.238223
3504.02	0.237328
3513.67	0.233812
3523.31	0.235998
3532.95	0.235952
3542.59	0.23577
3552.24	0.24018
3561.88	0.23598
3571.52	0.238152
3581.16	0.239369
3590.8	0.237551
3600.45	0.233188
3610.09	0.235706
3619.73	0.236455
3629.37	0.234001
3639.02	0.236421
3648.66	0.238343
3658.3	0.23942
3667.94	0.238992
3677.59	0.240248
3687.23	0.242162
3696.87	0.242411
3706.51	0.238044
3716.16	0.241615
3725.8	0.240709
3735.44	0.245359
3745.08	0.248894
3754.72	0.249138
3764.37	0.240649
3774.01	0.247271
3783.65	0.245406
3793.29	0.243472
3802.94	0.243174
3812.58	0.243947
3822.22	0.249193
3831.86	0.248871
3841.51	0.246815
3851.15	0.248852
3860.79	0.246463
3870.43	0.250039
3880.07	0.248656
3889.72	0.247981
3899.36	0.247571
3909	0.249494
3918.64	0.250144
3928.29	0.250694
3937.93	0.247484
3947.57	0.25253
3957.21	0.250417
3966.86	0.250034
3976.5	0.254355
3986.14	0.250879
3995.78	0.255823
