Measurement: Infrared, Infrared Data Processed
Mineral: Brazilianite
Rruff sample: R050126
Ideal chemistry: NaAl_3_(PO_4_)_2_(OH)_4_
Locality: Linopolis, Minas Gerais, Brazil
Source: Carlos and Paulo Vasconcelos
Description: Pair of greenish yellow elongated crystals
Measured chemistry: Na_1.00_Al_3.00_(P_1.00_O_4_)_2_((OH)_3.80_F_0.20_)_Î£=4_
x	intensity
374.123	0.171368
383.765	0.175363
393.407	0.204348
403.05	0.214453
412.692	0.205627
422.334	0.182704
431.976	0.165042
441.619	0.173767
451.261	0.189653
460.904	0.197523
470.546	0.202416
480.188	0.179341
489.83	0.149147
499.473	0.137945
509.115	0.124519
518.758	0.115017
528.4	0.133553
538.042	0.144514
547.684	0.139581
557.327	0.143024
566.969	0.122471
576.611	0.122993
586.254	0.117828
595.896	0.104934
605.538	0.110729
615.181	0.11679
624.823	0.10433
634.466	0.101859
644.108	0.0847853
653.75	0.0705532
663.393	0.0801068
673.035	0.0889359
682.677	0.0958892
692.319	0.0951198
701.962	0.0968409
711.604	0.1018
721.246	0.102776
730.889	0.0924137
740.531	0.0827048
750.173	0.0763752
759.816	0.0685668
769.458	0.0577626
779.101	0.0516914
788.743	0.0525247
798.385	0.0515494
808.028	0.0457977
817.67	0.0430903
827.312	0.0407477
836.955	0.038162
846.597	0.0349632
856.239	0.0336348
865.881	0.0345284
875.524	0.0376124
885.166	0.0436211
894.808	0.051849
904.451	0.0646488
914.093	0.0842167
923.736	0.114668
933.378	0.15698
943.02	0.193543
952.663	0.187729
962.305	0.198626
971.947	0.196158
981.59	0.173062
991.232	0.161411
1000.87	0.122059
1010.52	0.130674
1020.16	0.158966
1029.8	0.176731
1039.44	0.191926
1049.09	0.189735
1058.73	0.170569
1068.37	0.165694
1078.01	0.169943
1087.65	0.17503
1097.3	0.163736
1106.94	0.150707
1116.58	0.146344
1126.22	0.133579
1135.87	0.120391
1145.51	0.0961663
1155.15	0.0692854
1164.79	0.0513131
1174.44	0.0328496
1184.08	0.019014
1193.72	0.011411
1203.36	0.00755059
1213.01	0.00536035
1222.65	0.00364815
1232.29	0.00265231
1241.93	0.00159978
1251.58	0.00111535
1261.22	0.000700459
1270.86	0.000255954
1280.5	8.4778e-05
1290.14	-3.44536e-05
1299.79	-9.72804e-05
1309.43	-0.000184277
1319.07	-0.000160379
1328.71	-0.000167977
1338.36	-0.000232056
1348	-0.00010656
1357.64	0.000108782
1367.28	1.6083e-05
1376.92	3.57696e-05
1386.57	-0.000106669
1396.21	0.000185724
1405.85	0.00015919
1415.49	0.000362746
1425.14	0.000526733
1434.78	0.000318505
1444.42	0.000436535
1454.06	0.00049263
1463.71	0.000594336
1473.35	0.000853761
1482.99	0.000655434
1492.63	0.000408396
1502.28	0.00037617
1511.92	0.000611555
1521.56	0.00097737
1531.2	0.000608489
1540.85	0.0015668
1550.49	0.00116838
1560.13	0.0020947
1569.77	0.00161812
1579.41	0.00190592
1589.06	0.00151482
1598.7	0.00173666
1608.34	0.00173512
1617.98	0.00213167
1627.63	0.00203214
1637.27	0.00221884
1646.91	0.00222337
1656.55	0.00169409
1666.19	0.0014443
1675.84	0.00173001
1685.48	0.00169076
1695.12	0.00148518
1704.77	0.000937239
1714.41	0.000811848
1724.05	0.000596791
1733.69	0.000617664
1743.33	-0.000114999
1752.98	0.000116175
1762.62	0.000196959
1772.26	0.00014958
1781.9	-3.52471e-05
1791.55	0.00025571
1801.19	3.67641e-05
1810.83	-8.51956e-05
1820.47	0.000203545
1830.12	0.000102244
1839.76	2.90778e-05
1849.4	-7.55523e-05
1859.04	0.000261832
1868.68	0.000535016
1878.33	-0.000198448
1887.97	-0.000209348
1897.61	-0.000397026
1907.25	-0.000217805
1916.9	-0.000258273
1926.54	0.000107695
1936.18	-0.00146975
1945.82	-0.00162187
1955.46	-0.00173628
1965.11	-0.00221152
1974.75	-0.00287997
1984.39	-0.00133988
1994.04	-0.00265256
2003.68	-0.00160668
2013.32	-0.000895315
2022.96	-0.00302803
2032.6	-0.00209286
2042.25	-0.00254215
2051.89	-0.000567649
2061.53	-0.00186468
2071.17	-0.00187744
2080.82	-0.0017677
2090.46	-0.00204214
2100.1	-0.00224892
2109.74	-0.00196395
2119.39	-0.00224127
2129.03	-0.00309252
2138.67	-0.00387222
2148.31	-0.00362566
2157.95	-0.00278464
2167.6	-0.00348785
2177.24	-0.00171683
2186.88	-0.000683344
2196.52	-0.00148631
2206.17	-0.00174205
2215.81	-0.00146293
2225.45	-0.00140266
2235.09	-0.00126408
2244.74	-0.00189604
2254.38	-0.00139837
2264.02	-0.00107717
2273.66	-0.000259045
2283.3	-0.000362019
2292.95	5.37915e-05
2302.59	-0.000253188
2312.23	0.000663386
2321.87	0.00131557
2331.52	0.00141285
2341.16	0.00116386
2350.8	0.000595499
2360.44	0.00175429
2370.09	0.000917488
2379.73	0.000233422
2389.37	7.04611e-06
2399.01	0.000629107
2408.66	0.000996484
2418.3	0.000669682
2427.94	0.000454224
2437.58	0.000191435
2447.22	0.00125856
2456.87	0.00142816
2466.51	0.00172416
2476.15	0.000830451
2485.79	0.00134461
2495.44	0.00228001
2505.08	0.00138355
2514.72	0.00202804
2524.36	0.00122018
2534.01	0.00188513
2543.65	0.00133608
2553.29	0.00192473
2562.93	0.00115781
2572.57	0.00170968
2582.22	0.00114314
2591.86	0.00106824
2601.5	0.00146339
2611.14	0.00118401
2620.79	0.00138546
2630.43	0.00102001
2640.07	0.00115921
2649.71	0.00100377
2659.36	0.00135071
2669	0.00117492
2678.64	0.000446253
2688.28	0.000914432
2697.93	0.00102355
2707.57	0.000693594
2717.21	0.00166578
2726.85	0.00155299
2736.49	0.00101368
2746.14	0.00147241
2755.78	0.0017634
2765.42	0.00196349
2775.06	0.00191222
2784.71	0.00184308
2794.35	0.00241079
2803.99	0.00262095
2813.63	0.00266239
2823.28	0.00278176
2832.92	0.0030598
2842.56	0.00364432
2852.2	0.00411221
2861.84	0.0037185
2871.49	0.0036045
2881.13	0.0036526
2890.77	0.00387061
2900.41	0.00499713
2910.06	0.00476614
2919.7	0.00552784
2929.34	0.00513302
2938.98	0.0041919
2948.62	0.00398247
2958.27	0.00498188
2967.91	0.00488074
2977.55	0.00401481
2987.2	0.00408391
2996.84	0.00479695
3006.48	0.00563541
3016.12	0.006844
3025.76	0.00564709
3035.41	0.00565014
3045.05	0.00587117
3054.69	0.00709381
3064.33	0.00701852
3073.98	0.00886719
3083.62	0.00854494
3093.26	0.00927036
3102.9	0.00855709
3112.55	0.0107372
3122.19	0.0118173
3131.83	0.0128959
3141.47	0.0132091
3151.11	0.0161891
3160.76	0.0165771
3170.4	0.0180642
3180.04	0.0188125
3189.68	0.0211734
3199.33	0.0238788
3208.97	0.0264155
3218.61	0.0299216
3228.25	0.0328678
3237.9	0.0360711
3247.54	0.0402299
3257.18	0.0423111
3266.82	0.042951
3276.47	0.0419132
3286.11	0.0387196
3295.75	0.0326851
3305.39	0.0284906
3315.03	0.0256401
3324.68	0.0240318
3334.32	0.0223934
3343.96	0.0219105
3353.6	0.0229515
3363.25	0.0235484
3372.89	0.0252989
3382.53	0.0270127
3392.17	0.0306731
3401.82	0.0374991
3411.46	0.0446533
3421.1	0.0440696
3430.74	0.0436385
3440.39	0.0518233
3450.03	0.0658826
3459.67	0.0804663
3469.31	0.0833723
3478.95	0.0753386
3488.6	0.0551492
3498.24	0.034397
3507.88	0.0255229
3517.52	0.0181764
3527.17	0.0127495
3536.81	0.00886473
3546.45	0.00268952
3556.09	0.00145763
3565.74	-0.00136424
3575.38	-0.003742
3585.02	-0.00286474
3594.66	-0.00534298
3604.3	-0.00755722
3613.95	-0.00682746
3623.59	-0.00772658
3633.23	-0.0106679
3642.87	-0.0100727
3652.52	-0.00951043
3662.16	-0.0110998
3671.8	-0.009539
3681.44	-0.0123358
3691.09	-0.0105226
3700.73	-0.0111509
3710.37	-0.0107581
3720.01	-0.0122867
3729.66	-0.0122632
3739.3	-0.0109911
3748.94	-0.0105109
3758.58	-0.013231
3768.22	-0.0124028
3777.87	-0.0123589
3787.51	-0.0142464
3797.15	-0.012414
3806.79	-0.012213
3816.44	-0.0116637
3826.08	-0.0128221
3835.72	-0.0125743
3845.36	-0.0132797
3855.01	-0.0118917
3864.65	-0.0124567
3874.29	-0.012438
3883.93	-0.0126272
3893.57	-0.0133995
3903.22	-0.0135333
3912.86	-0.0136017
3922.5	-0.0154665
3932.14	-0.0139101
3941.79	-0.0139917
3951.43	-0.0119904
3961.07	-0.0144863
3970.71	-0.0131423
3980.36	-0.0126173
3990	-0.0144713
3999.64	-0.0141575
