Measurement: Infrared, Infrared Data Processed
Mineral: Brazilianite
Rruff sample: R050319
Ideal chemistry: NaAl_3_(PO_4_)_2_(OH)_4_
Locality: Minas Gerais, Brazil
Source: American Museum of Natural History
Description: Pale green fragment
Measured chemistry: Na_1.00_Al_3.00_(PO_4_)_2_(OH)_4_
x	intensity
399.193	0.22949
408.835	0.227064
418.477	0.216574
428.12	0.186479
437.762	0.200179
447.404	0.219676
457.047	0.228898
466.689	0.230843
476.331	0.215174
485.974	0.173944
495.616	0.162695
505.258	0.151088
514.901	0.140611
524.543	0.146955
534.185	0.178213
543.828	0.168451
553.47	0.173284
563.112	0.151306
572.755	0.140378
582.397	0.143162
592.039	0.126061
601.682	0.128127
611.324	0.140532
620.966	0.132902
630.609	0.128334
640.251	0.115676
649.893	0.0901901
659.536	0.0938303
669.178	0.106158
678.82	0.118291
688.463	0.118463
698.105	0.11848
707.747	0.121903
717.39	0.127787
727.032	0.119128
736.674	0.107291
746.317	0.0993043
755.959	0.0919523
765.601	0.0782643
775.244	0.0671985
784.886	0.066963
794.528	0.0687049
804.171	0.062564
813.813	0.0572643
823.455	0.0547343
833.098	0.0509426
842.74	0.0473481
852.382	0.0438274
862.025	0.0438575
871.667	0.045409
881.309	0.0507609
890.952	0.0599496
900.594	0.0740734
910.236	0.0954175
919.879	0.130018
929.521	0.183276
939.163	0.249368
948.806	0.257715
958.448	0.264636
968.09	0.271596
977.733	0.239352
987.375	0.22725
997.017	0.177235
1006.66	0.161427
1016.3	0.201184
1025.94	0.229653
1035.59	0.249406
1045.23	0.265402
1054.87	0.233956
1064.51	0.215648
1074.16	0.217056
1083.8	0.22048
1093.44	0.215865
1103.08	0.190664
1112.72	0.182009
1122.37	0.174585
1132.01	0.158528
1141.65	0.134726
1151.3	0.0989587
1160.94	0.0732268
1170.58	0.0513048
1180.22	0.0310963
1189.86	0.0193898
1199.51	0.0143639
1209.15	0.0114466
1218.79	0.00935656
1228.43	0.00769092
1238.08	0.00687304
1247.72	0.00564569
1257.36	0.00567101
1267	0.00508032
1276.64	0.00511377
1286.29	0.00489867
1295.93	0.00469416
1305.57	0.00396897
1315.21	0.00459591
1324.86	0.0039026
1334.5	0.00464043
1344.14	0.00442157
1353.78	0.00439847
1363.43	0.00465578
1373.07	0.00480487
1382.71	0.00499109
1392.35	0.00504799
1401.99	0.00542668
1411.64	0.00582537
1421.28	0.00551169
1430.92	0.00522306
1440.57	0.00518899
1450.21	0.00515556
1459.85	0.00504564
1469.49	0.00503372
1479.13	0.00554085
1488.78	0.005696
1498.42	0.00628158
1508.06	0.00685061
1517.7	0.00713655
1527.35	0.00759399
1536.99	0.00818113
1546.63	0.00841047
1556.27	0.00882621
1565.91	0.00841453
1575.56	0.00979735
1585.2	0.0091519
1594.84	0.0105003
1604.48	0.0105892
1614.13	0.0111546
1623.77	0.0119581
1633.41	0.0125699
1643.05	0.0130126
1652.7	0.0141948
1662.34	0.0115785
1671.98	0.00995592
1681.62	0.0084057
1691.27	0.00758109
1700.91	0.00698939
1710.55	0.00462513
1720.19	0.00423253
1729.84	0.00375091
1739.48	0.00154131
1749.12	0.000530303
1758.76	0.00272682
1768.4	0.0043237
1778.05	0.00418193
1787.69	0.0037651
1797.33	0.0038656
1806.97	0.0034631
1816.62	0.00382076
1826.26	0.00408387
1835.9	0.0032721
1845.54	0.00304409
1855.18	0.00272303
1864.83	0.0030264
1874.47	0.00181218
1884.11	0.00170907
1893.75	0.00159855
1903.4	0.00319491
1913.04	0.00317381
1922.68	0.00115866
1932.32	0.000645627
1941.97	0.0014581
1951.61	-0.000435857
1961.25	-0.00172955
1970.89	-0.00112046
1980.54	0.000998445
1990.18	-0.000466089
1999.82	0.00229537
2009.46	0.0033833
2019.11	-0.000392822
2028.75	-0.001296
2038.39	0.000727232
2048.03	0.00134287
2057.67	-0.00260459
2067.32	0.00356399
2076.96	0.00334117
2086.6	0.00470511
2096.24	0.00243996
2105.89	0.00170378
2115.53	0.00303702
2125.17	0.00143929
2134.81	-0.000919876
2144.45	-0.00282758
2154.1	-0.0044605
2163.74	-0.000259279
2173.38	-0.00297305
2183.02	-0.00133302
2192.67	0.00140009
2202.31	0.000578181
2211.95	-1.6124e-06
2221.59	0.00359926
2231.24	0.00271206
2240.88	0.0016722
2250.52	0.00294334
2260.16	0.0033488
2269.8	0.00517379
2279.45	0.00541575
2289.09	0.00570614
2298.73	0.00730941
2308.38	0.00825057
2318.02	0.00875219
2327.66	0.00795183
2337.3	0.00888218
2346.94	0.007636
2356.59	0.00950369
2366.23	0.00822545
2375.87	0.00811867
2385.51	0.00768735
2395.16	0.00803197
2404.8	0.00905863
2414.44	0.00810881
2424.08	0.00740746
2433.72	0.00679678
2443.37	0.00863307
2453.01	0.00884833
2462.65	0.00806188
2472.29	0.00720192
2481.94	0.00769556
2491.58	0.00881948
2501.22	0.0096143
2510.86	0.00966614
2520.51	0.0079091
2530.15	0.00987622
2539.79	0.00793147
2549.43	0.00950163
2559.07	0.00891889
2568.72	0.00891029
2578.36	0.00902185
2588	0.0103147
2597.64	0.010148
2607.29	0.00996274
2616.93	0.0103232
2626.57	0.0105437
2636.21	0.0104782
2645.86	0.0114732
2655.5	0.0113817
2665.14	0.010025
2674.78	0.0105676
2684.43	0.0111741
2694.07	0.010501
2703.71	0.0107586
2713.35	0.0114037
2722.99	0.0127041
2732.64	0.0112087
2742.28	0.0107788
2751.92	0.0128214
2761.56	0.0126949
2771.21	0.0130725
2780.85	0.0124126
2790.49	0.0127769
2800.13	0.0143099
2809.78	0.0143229
2819.42	0.0143261
2829.06	0.0158947
2838.7	0.0136684
2848.34	0.0153065
2857.99	0.0145727
2867.63	0.0167378
2877.27	0.0173949
2886.91	0.0175139
2896.56	0.0175355
2906.2	0.0181624
2915.84	0.0192024
2925.48	0.0181509
2935.13	0.0188767
2944.77	0.020176
2954.41	0.0192275
2964.05	0.0199918
2973.7	0.0216215
2983.34	0.0226814
2992.98	0.0202828
3002.62	0.0213016
3012.26	0.0226389
3021.91	0.0234455
3031.55	0.0214154
3041.19	0.0249703
3050.83	0.024099
3060.48	0.025289
3070.12	0.0255625
3079.76	0.0278357
3089.4	0.0286029
3099.05	0.0315883
3108.69	0.0300975
3118.33	0.0323227
3127.97	0.0317932
3137.61	0.035828
3147.26	0.0375019
3156.9	0.0360904
3166.54	0.0399156
3176.18	0.0407838
3185.83	0.0449265
3195.47	0.0473793
3205.11	0.0527713
3214.75	0.0585237
3224.4	0.0666306
3234.04	0.0696296
3243.68	0.073925
3253.32	0.0791949
3262.97	0.0862418
3272.61	0.0822173
3282.25	0.0802713
3291.89	0.0686783
3301.53	0.0624044
3311.18	0.0611262
3320.82	0.0550834
3330.46	0.054606
3340.1	0.0529204
3349.75	0.0548209
3359.39	0.0527654
3369.03	0.0529097
3378.67	0.0562937
3388.32	0.0593577
3397.96	0.0661928
3407.6	0.0770652
3417.24	0.0845369
3426.89	0.0786991
3436.53	0.0814987
3446.17	0.100133
3455.81	0.125879
3465.45	0.149329
3475.1	0.148454
3484.74	0.120718
3494.38	0.0826525
3504.02	0.0626131
3513.67	0.0549172
3523.31	0.047108
3532.95	0.0381601
3542.59	0.0315225
3552.24	0.026284
3561.88	0.0268339
3571.52	0.0197733
3581.16	0.0154237
3590.8	0.0162082
3600.45	0.013023
3610.09	0.0149149
3619.73	0.00837078
3629.37	0.011074
3639.02	0.0115961
3648.66	0.0120398
3658.3	0.0126643
3667.94	0.00772675
3677.59	0.00973191
3687.23	0.0119406
3696.87	0.00538914
3706.51	0.00577254
3716.16	0.00477667
3725.8	0.00726668
3735.44	0.00925366
3745.08	0.00730167
3754.72	0.00749894
3764.37	0.00983407
3774.01	0.00720282
3783.65	0.00745319
3793.29	0.00852817
3802.94	0.00313651
3812.58	0.00821919
3822.22	0.00434811
3831.86	0.00725853
3841.51	0.00829063
3851.15	0.00872814
3860.79	0.0100937
3870.43	0.0103008
3880.07	0.00577205
3889.72	0.0113884
3899.36	0.00659474
3909	0.00759745
3918.64	0.00533076
3928.29	0.00646296
3937.93	0.00515492
3947.57	0.00701942
3957.21	0.00170565
3966.86	0.0050305
3976.5	0.00192869
3986.14	0.00826088
3995.78	0.00762023
