Measurement: Infrared, Infrared Data Processed
Mineral: Carletonite
Rruff sample: R050255
Ideal chemistry: KNa_4_Ca_4_Si_8_O_18_(CO_3_)_4_(F,OH)H_2_O
Locality: Mont Saint-Hilaire, Rouville County, Quebec, Canada
Source: Marcus Origlieri
Description: Group of blue prismatic single crystals
Measured chemistry: (K_0.86_Na_0.14_)_Σ=1_Na_4.00_Ca_4.00_Si_8.00_O_18_(CO_3_)_4_(F_0.51_(OH)_0.49_)_Σ=1_·H_2_O
x	intensity
50.1401	0.00507181
52.0686	0.00656732
53.9971	0.0148316
55.9255	0.0157037
57.854	0.0172486
59.7825	0.0198684
61.7109	0.0192758
63.6394	0.0186877
65.5679	0.0200705
67.4963	0.0202588
69.4248	0.0177595
71.3533	0.0177307
73.2817	0.0185113
75.2102	0.017109
77.1387	0.016526
79.0671	0.018254
80.9956	0.0187212
82.9241	0.0185231
84.8525	0.018131
86.781	0.0185536
88.7095	0.0200601
90.6379	0.0205607
92.5664	0.0212529
94.4948	0.0224745
96.4233	0.0228573
98.3518	0.0231706
100.28	0.0233304
102.209	0.0230546
104.137	0.0229359
106.066	0.0238419
107.994	0.0240331
109.923	0.0231101
111.851	0.0233862
113.779	0.0235966
115.708	0.0233315
117.636	0.0238167
119.565	0.0247727
121.493	0.0255451
123.422	0.0264578
125.35	0.0262349
127.279	0.0263317
129.207	0.026932
131.136	0.0276791
133.064	0.0280013
134.993	0.02781
136.921	0.0284785
138.85	0.0301018
140.778	0.0302372
142.707	0.0299927
144.635	0.0300222
146.563	0.0301685
148.492	0.0315402
150.42	0.0323116
152.349	0.0312214
154.277	0.0309555
156.206	0.031853
158.134	0.0324824
160.063	0.0326496
161.991	0.0328051
163.92	0.0334458
165.848	0.0343447
167.777	0.0347228
169.705	0.0361186
171.633	0.0374614
173.562	0.0378568
175.49	0.038061
177.419	0.0375939
179.347	0.036241
181.276	0.0353498
183.204	0.0346261
185.133	0.0345476
187.061	0.0355039
188.99	0.0366355
190.918	0.0377576
192.847	0.0385998
194.775	0.039435
196.704	0.0403851
198.632	0.0417205
200.56	0.0430526
202.489	0.0445568
204.417	0.0450842
206.346	0.0453321
208.274	0.0455056
210.203	0.044743
212.131	0.0441535
214.06	0.0443742
215.988	0.0454809
217.917	0.0468698
219.845	0.0476352
221.774	0.0470601
223.702	0.0448532
225.631	0.0425133
227.559	0.040128
229.488	0.0381556
231.416	0.037344
233.344	0.0372273
235.273	0.0381242
237.201	0.0389968
239.13	0.039958
241.058	0.041285
242.987	0.0425052
244.915	0.0442793
246.844	0.0467652
248.772	0.0489758
250.701	0.0508819
252.629	0.0529521
254.558	0.0543435
256.486	0.054122
258.414	0.0534865
260.343	0.0524361
262.271	0.0509255
264.2	0.0496202
266.128	0.0489495
268.057	0.0488336
269.985	0.0496885
271.914	0.0507401
273.842	0.0508173
275.771	0.0499453
277.699	0.0488323
279.628	0.0469503
281.556	0.0447497
283.485	0.0431297
285.413	0.0415084
287.341	0.0402004
289.27	0.0394492
291.198	0.0388467
293.127	0.0386133
295.055	0.0386225
296.984	0.0387772
298.912	0.0391334
300.841	0.039732
302.769	0.0405528
304.698	0.0410891
306.626	0.041507
308.555	0.0418613
310.483	0.0423828
312.411	0.043213
314.34	0.0439323
316.269	0.0441277
318.197	0.044432
320.125	0.0450344
322.054	0.0456485
323.982	0.0458041
325.911	0.0455144
327.839	0.0457944
329.768	0.0456009
331.696	0.0449356
333.625	0.0444592
335.553	0.0442232
337.482	0.0438895
339.41	0.0437145
341.339	0.0437233
343.267	0.0436123
345.195	0.0433353
347.124	0.0432461
349.052	0.0431204
350.981	0.0426697
352.909	0.0419976
354.838	0.0411759
356.766	0.0405659
358.695	0.0402759
360.623	0.0396582
362.552	0.0390514
364.48	0.039168
366.409	0.03942
368.337	0.0395298
370.265	0.0399888
372.194	0.0407716
374.122	0.0420171
376.051	0.0435891
377.979	0.0451474
379.908	0.0463721
381.836	0.0469803
383.765	0.0470549
385.693	0.0465983
387.622	0.0458786
389.55	0.0456502
391.479	0.0456519
393.407	0.0453213
395.336	0.0443854
397.264	0.0432377
399.192	0.0420415
401.121	0.0415225
403.049	0.0420218
404.978	0.0430322
406.906	0.0440051
408.835	0.0452608
410.763	0.0467141
412.692	0.0482813
414.62	0.0503258
416.549	0.0523715
418.477	0.0545922
420.406	0.0571237
422.334	0.0600257
424.262	0.0629882
426.191	0.0663784
428.12	0.0698683
430.048	0.0735917
431.976	0.0770585
433.905	0.0797942
435.833	0.0815639
437.762	0.0813676
439.69	0.0790583
441.619	0.074995
443.547	0.0698654
445.476	0.0657559
447.404	0.0642717
449.333	0.0661432
451.261	0.0699676
453.19	0.0730326
455.118	0.0731295
457.046	0.0711978
458.975	0.067954
460.903	0.0644112
462.832	0.0610237
464.76	0.0574841
466.689	0.0536486
468.617	0.0504826
470.546	0.0477158
472.474	0.0457993
474.403	0.0451997
476.331	0.0458404
478.26	0.0472081
480.188	0.0486625
482.116	0.0495882
484.045	0.0489839
485.974	0.0476348
487.902	0.0474203
489.83	0.0484004
491.759	0.0506466
493.687	0.0529992
495.616	0.0529563
497.544	0.0506704
499.473	0.0488948
501.401	0.0476867
503.33	0.0458819
505.258	0.0434914
507.187	0.0408552
509.115	0.0381018
511.043	0.035753
512.972	0.0346105
514.9	0.0345367
516.829	0.0353861
518.757	0.0383872
520.686	0.0423555
522.614	0.0453816
524.543	0.0464106
526.471	0.0448894
528.4	0.0412577
530.328	0.0374513
532.257	0.0344487
534.185	0.0321808
536.114	0.0309068
538.042	0.0302746
539.971	0.0292607
541.899	0.0287711
543.827	0.0292394
545.756	0.0294095
547.684	0.0289009
549.613	0.0284523
551.541	0.0286868
553.47	0.0287005
555.398	0.0284659
557.327	0.0283786
559.255	0.0281923
561.184	0.0282185
563.112	0.0283266
565.041	0.0283478
566.969	0.0280972
568.898	0.0286495
570.826	0.0290605
572.755	0.0291616
574.683	0.029763
576.611	0.0306725
578.54	0.031021
580.468	0.031493
582.397	0.0328401
584.325	0.0342899
586.254	0.0357257
588.182	0.036707
590.111	0.0366286
592.039	0.0349107
593.968	0.0330669
595.896	0.032039
597.824	0.0310416
599.753	0.0296414
601.682	0.0283777
603.61	0.0278453
605.538	0.0274563
607.467	0.0272027
609.395	0.0271654
611.324	0.0276017
613.252	0.0286094
615.181	0.0290718
617.109	0.0285813
619.038	0.0280733
620.966	0.0283192
622.894	0.0294158
624.823	0.0308982
626.751	0.0328647
628.68	0.0349102
630.608	0.0367979
632.537	0.0379739
634.465	0.0381515
636.394	0.0386543
638.322	0.0394618
640.251	0.0403447
642.179	0.0415697
644.108	0.0426872
646.036	0.0442234
647.965	0.0461082
649.893	0.0486698
651.822	0.0520313
653.75	0.0563827
655.678	0.0609026
657.607	0.0644943
659.535	0.0660058
661.464	0.0649123
663.392	0.0616673
665.321	0.0575763
667.249	0.0538889
669.178	0.0505287
671.106	0.0478362
673.035	0.0465404
674.963	0.0459854
676.892	0.0458836
678.82	0.0465184
680.749	0.0469835
682.677	0.0479655
684.606	0.0494772
686.534	0.0507211
688.462	0.0525212
690.391	0.0558033
692.319	0.0584931
694.248	0.0547074
696.176	0.0488578
698.105	0.0464119
700.033	0.0459117
