Measurement: Infrared, Infrared Data Processed
Mineral: Celestine
Rruff sample: R050008
Ideal chemistry: SrS^6+^O_4_
Locality: Scofield Quarry, Maybee, Monroe County, Michigan, USA
Source: Eugene Schlepp
Description: Pale blue tabular crystals
Measured chemistry: Sr_1.00_S_1.00_O_4_
x	intensity
399.193	0
408.835	0.00356968
418.477	0.00651697
428.12	0.00674686
437.762	0.0066992
447.404	0.00701709
457.047	0.00884259
466.689	0.0109378
476.331	0.0120949
485.974	0.0103192
495.616	0.0117012
505.258	0.0128118
514.901	0.0141884
524.543	0.0177093
534.185	0.0222255
543.828	0.0278372
553.47	0.0353805
563.112	0.0511106
572.755	0.08271
582.397	0.157662
592.039	0.307214
601.682	0.470007
611.324	0.34854
620.966	0.159999
630.609	0.123681
640.251	0.213979
649.893	0.120568
659.536	0.0457867
669.178	0.0207759
678.82	0.012836
688.463	0.00956771
698.105	0.00908828
707.747	0.00927825
717.39	0.00933583
727.032	0.0094234
736.674	0.0100185
746.317	0.0103073
755.959	0.0107039
765.601	0.0116576
775.244	0.0126746
784.886	0.0133055
794.528	0.0141348
804.171	0.0152841
813.813	0.0163067
823.455	0.0174134
833.098	0.0181905
842.74	0.0196152
852.382	0.0210708
862.025	0.0225827
871.667	0.0242396
881.309	0.027163
890.952	0.0293072
900.594	0.0329947
910.236	0.0380192
919.879	0.044147
929.521	0.0516446
939.163	0.0607248
948.806	0.07353
958.448	0.0916827
968.09	0.120358
977.733	0.16753
987.375	0.29122
997.017	0.237805
1006.66	0.18025
1016.3	0.265913
1025.94	0.355829
1035.59	0.454376
1045.23	0.560539
1054.87	0.661947
1064.51	0.724628
1074.16	0.715558
1083.8	0.651418
1093.44	0.574417
1103.08	0.503391
1112.72	0.454734
1122.37	0.406806
1132.01	0.357914
1141.65	0.311234
1151.3	0.266713
1160.94	0.227131
1170.58	0.202462
1180.22	0.208058
1189.86	0.223176
1199.51	0.22291
1209.15	0.195762
1218.79	0.159331
1228.43	0.122044
1238.08	0.0950262
1247.72	0.0720049
1257.36	0.0340613
1267	0.0182978
1276.64	0.0124663
1286.29	0.00922513
1295.93	0.00729387
1305.57	0.0058155
1315.21	0.00471312
1324.86	0.00384622
1334.5	0.00306966
1344.14	0.00278248
1353.78	0.00265008
1363.43	0.00264964
1373.07	0.00257545
1382.71	0.00237423
1392.35	0.00244637
1401.99	0.00254115
1411.64	0.00242898
1421.28	0.00267876
1430.92	0.00250675
1440.57	0.00260059
1450.21	0.00304813
1459.85	0.00332444
1469.49	0.00314039
1479.13	0.00252021
1488.78	0.00263628
1498.42	0.00250809
1508.06	0.00265377
1517.7	0.00261462
1527.35	0.00343904
1536.99	0.0039733
1546.63	0.0046166
1556.27	0.00487017
1565.91	0.00541078
1575.56	0.00555773
1585.2	0.00621281
1594.84	0.00669483
1604.48	0.00674195
1614.13	0.00696803
1623.77	0.00640008
1633.41	0.006198
1643.05	0.0062463
1652.7	0.00589222
1662.34	0.00614915
1671.98	0.00579633
1681.62	0.00557601
1691.27	0.00543646
1700.91	0.00467206
1710.55	0.00485046
1720.19	0.00531155
1729.84	0.00498235
1739.48	0.00424903
1749.12	0.00413843
1758.76	0.0044724
1768.4	0.00446256
1778.05	0.00441518
1787.69	0.00437214
1797.33	0.00447353
1806.97	0.00446874
1816.62	0.00412896
1826.26	0.00515544
1835.9	0.00465247
1845.54	0.00482302
1855.18	0.00494362
1864.83	0.00486351
1874.47	0.00431902
1884.11	0.00423284
1893.75	0.00427796
1903.4	0.00458224
1913.04	0.00421588
1922.68	0.00306921
1932.32	0.00340512
1941.97	0.00362312
1951.61	0.00212224
1961.25	0.00197316
1970.89	-0.00153768
1980.54	0.00264312
1990.18	0.000859656
1999.82	0.00374645
2009.46	0.00238879
2019.11	0.00149368
2028.75	0.000526136
2038.39	0.00309795
2048.03	0.00231147
2057.67	0.0040473
2067.32	0.00585472
2076.96	0.00719182
2086.6	0.00755383
2096.24	0.00550636
2105.89	0.00476817
2115.53	0.00320645
2125.17	0.0025789
2134.81	-0.00097336
2144.45	-0.00336721
2154.1	-0.00707421
2163.74	0.000562734
2173.38	-0.000997009
2183.02	-0.00267365
2192.67	0.00218553
2202.31	0.00132855
2211.95	0.00199431
2221.59	0.00388451
2231.24	0.00294356
2240.88	0.0033461
2250.52	0.00291688
2260.16	0.00473284
2269.8	0.00547068
2279.45	0.0070903
2289.09	0.00763883
2298.73	0.00751517
2308.38	0.00856929
2318.02	0.00916904
2327.66	0.00745279
2337.3	0.00757069
2346.94	0.0075711
2356.59	0.00767004
2366.23	0.00653162
2375.87	0.00642464
2385.51	0.00635298
2395.16	0.00612798
2404.8	0.00683539
2414.44	0.00647525
2424.08	0.00636045
2433.72	0.00647096
2443.37	0.00636911
2453.01	0.0071509
2462.65	0.00828815
2472.29	0.00734662
2481.94	0.00776253
2491.58	0.00811452
2501.22	0.00895643
2510.86	0.0101702
2520.51	0.00947163
2530.15	0.00986331
2539.79	0.0107441
2549.43	0.0112132
2559.07	0.0113139
2568.72	0.0115118
2578.36	0.0114053
2588	0.0116717
2597.64	0.0118387
2607.29	0.0118564
2616.93	0.0126742
2626.57	0.0121843
2636.21	0.0119415
2645.86	0.0124432
2655.5	0.0120479
2665.14	0.0118055
2674.78	0.0107578
2684.43	0.0111478
2694.07	0.0113707
2703.71	0.0115886
2713.35	0.0109386
2722.99	0.011721
2732.64	0.0118938
2742.28	0.0116121
2751.92	0.0121539
2761.56	0.0123486
2771.21	0.012028
2780.85	0.0130304
2790.49	0.0117489
2800.13	0.0128058
2809.78	0.0122161
2819.42	0.0126549
2829.06	0.0131511
2838.7	0.0133055
2848.34	0.011786
2857.99	0.0131641
2867.63	0.0127622
2877.27	0.0132356
2886.91	0.0131418
2896.56	0.0135289
2906.2	0.0130532
2915.84	0.0128865
2925.48	0.0137778
2935.13	0.0132907
2944.77	0.0135379
2954.41	0.0135207
2964.05	0.0143457
2973.7	0.0134628
2983.34	0.0146415
2992.98	0.0146669
3002.62	0.014865
3012.26	0.0149265
3021.91	0.0150212
3031.55	0.0159359
3041.19	0.0147203
3050.83	0.0141508
3060.48	0.0150803
3070.12	0.0148352
3079.76	0.0144409
3089.4	0.0146836
3099.05	0.0149004
3108.69	0.0141052
3118.33	0.0150979
3127.97	0.0151831
3137.61	0.0158132
3147.26	0.0158008
3156.9	0.015955
3166.54	0.0168013
3176.18	0.0161955
3185.83	0.0165526
3195.47	0.0165793
3205.11	0.0144318
3214.75	0.0171553
3224.4	0.0160251
3234.04	0.0175425
3243.68	0.0149322
3253.32	0.0162077
3262.97	0.017007
3272.61	0.0170034
3282.25	0.0167244
3291.89	0.0160613
3301.53	0.0177611
3311.18	0.0165192
3320.82	0.0175505
3330.46	0.0172323
3340.1	0.0174334
3349.75	0.0168739
3359.39	0.0182951
3369.03	0.0189031
3378.67	0.0177295
3388.32	0.0169735
3397.96	0.0174017
3407.6	0.017856
3417.24	0.0177675
3426.89	0.0187496
3436.53	0.0198935
3446.17	0.0187565
3455.81	0.0187997
3465.45	0.0198218
3475.1	0.0196285
3484.74	0.0199821
3494.38	0.0190569
3504.02	0.0175522
3513.67	0.0187484
3523.31	0.0205501
3532.95	0.0175911
3542.59	0.018363
3552.24	0.0197063
3561.88	0.0191281
3571.52	0.0219091
3581.16	0.0190149
3590.8	0.0199794
3600.45	0.0201712
3610.09	0.0188884
3619.73	0.0177867
3629.37	0.0199143
3639.02	0.0194455
3648.66	0.0211075
3658.3	0.0188971
3667.94	0.0188076
3677.59	0.0196974
3687.23	0.0181167
3696.87	0.0192925
3706.51	0.0179816
3716.16	0.0207884
3725.8	0.0190112
3735.44	0.0179606
3745.08	0.0194653
3754.72	0.0181223
3764.37	0.0188259
3774.01	0.0191795
3783.65	0.0222214
3793.29	0.0214782
3802.94	0.0203911
3812.58	0.0202253
3822.22	0.0209385
3831.86	0.0214602
3841.51	0.02233
3851.15	0.0195178
3860.79	0.0186674
3870.43	0.0208604
3880.07	0.0192821
3889.72	0.0218574
3899.36	0.0186798
3909	0.0205411
3918.64	0.0184148
3928.29	0.0183473
3937.93	0.0198145
3947.57	0.0190633
3957.21	0.0198494
3966.86	0.0214301
3976.5	0.0209076
3986.14	0.0214968
3995.78	0.0225462
