Measurement: Infrared, Infrared Data Processed
Mineral: Chabazite-Ca
Rruff sample: R050075
Ideal chemistry: Ca_2_Al_4_Si_8_O_24_13H_2_O
Locality: Victoria, Australia
Source: Rock Currier
Description: White pseudohexagonal crystals
Measured chemistry: (Ca_0.79_Na_0.22_K_0.14_)_Σ=1.15_(Si_4.08_Al_1.92_)O_12_·6H_2_O
x	intensity
399.193	0
408.835	0.128488
418.477	0.115195
428.12	0.102226
437.762	0.100965
447.404	0.103885
457.047	0.10765
466.689	0.102206
476.331	0.0924813
485.974	0.0849611
495.616	0.0838238
505.258	0.0878728
514.901	0.091051
524.543	0.080602
534.185	0.0672087
543.828	0.062508
553.47	0.0624712
563.112	0.0663333
572.755	0.0696406
582.397	0.0746807
592.039	0.0777585
601.682	0.0827773
611.324	0.0868066
620.966	0.0867863
630.609	0.0833197
640.251	0.0775106
649.893	0.066738
659.536	0.056183
669.178	0.0510449
678.82	0.0492955
688.463	0.0487101
698.105	0.0486779
707.747	0.0477637
717.39	0.046415
727.032	0.0441346
736.674	0.0419462
746.317	0.038722
755.959	0.0359371
765.601	0.0338295
775.244	0.0307741
784.886	0.0271413
794.528	0.0240956
804.171	0.0215458
813.813	0.0207375
823.455	0.0205183
833.098	0.0203804
842.74	0.0216732
852.382	0.0234426
862.025	0.0254881
871.667	0.0281552
881.309	0.0317218
890.952	0.0356401
900.594	0.0424631
910.236	0.0517718
919.879	0.0652872
929.521	0.0856006
939.163	0.114695
948.806	0.149932
958.448	0.180255
968.09	0.201682
977.733	0.217155
987.375	0.226387
997.017	0.226167
1006.66	0.219718
1016.3	0.208049
1025.94	0.190911
1035.59	0.168275
1045.23	0.141888
1054.87	0.117301
1064.51	0.100528
1074.16	0.0915965
1083.8	0.0869817
1093.44	0.0832001
1103.08	0.0801083
1112.72	0.0773039
1122.37	0.0740291
1132.01	0.0693347
1141.65	0.0643366
1151.3	0.0581378
1160.94	0.0505715
1170.58	0.0423541
1180.22	0.0336202
1189.86	0.0250497
1199.51	0.018264
1209.15	0.0134527
1218.79	0.0107126
1228.43	0.0085347
1238.08	0.00732337
1247.72	0.00616507
1257.36	0.00562202
1267	0.00503036
1276.64	0.00464872
1286.29	0.00415449
1295.93	0.00398042
1305.57	0.00379134
1315.21	0.00425789
1324.86	0.00388719
1334.5	0.00398362
1344.14	0.00390958
1353.78	0.00392113
1363.43	0.00410965
1373.07	0.00435048
1382.71	0.00389107
1392.35	0.00455722
1401.99	0.00453339
1411.64	0.00468553
1421.28	0.00499932
1430.92	0.00531363
1440.57	0.00549516
1450.21	0.00569665
1459.85	0.00575126
1469.49	0.00613357
1479.13	0.00563311
1488.78	0.00545073
1498.42	0.00527031
1508.06	0.00474092
1517.7	0.00505798
1527.35	0.00524433
1536.99	0.00559894
1546.63	0.00581277
1556.27	0.00674625
1565.91	0.00757989
1575.56	0.00830741
1585.2	0.00962892
1594.84	0.0114251
1604.48	0.014054
1614.13	0.0184023
1623.77	0.0245093
1633.41	0.0299407
1643.05	0.0320023
1652.7	0.0297805
1662.34	0.0261264
1671.98	0.0207036
1681.62	0.0154923
1691.27	0.0110692
1700.91	0.00784484
1710.55	0.0064547
1720.19	0.00507848
1729.84	0.00394197
1739.48	0.00269506
1749.12	0.00204931
1758.76	0.00222798
1768.4	0.00248903
1778.05	0.00202815
1787.69	0.00203784
1797.33	0.00178299
1806.97	0.0018398
1816.62	0.00128052
1826.26	0.00134913
1835.9	0.000729557
1845.54	0.000697799
1855.18	0.000394232
1864.83	0.00131459
1874.47	0.000367177
1884.11	-0.000653962
1893.75	-0.000703741
1903.4	-0.0018613
1913.04	-0.000702462
1922.68	-0.00303127
1932.32	-0.00292852
1941.97	-0.00411325
1951.61	-0.00557676
1961.25	-0.0044778
1970.89	-0.00943552
1980.54	-0.00259575
1990.18	-0.00558016
1999.82	-0.00638896
2009.46	-0.0079149
2019.11	-0.00868279
2028.75	-0.00795013
2038.39	-0.00453513
2048.03	-0.00379336
2057.67	-0.00362922
2067.32	-0.00351832
2076.96	-0.00150403
2086.6	-0.000308928
2096.24	-0.00270518
2105.89	-0.00208699
2115.53	-0.00170936
2125.17	-0.00234217
2134.81	-0.0049509
2144.45	-0.00165472
2154.1	-0.00735667
2163.74	-0.00104512
2173.38	-0.00299395
2183.02	-0.00163905
2192.67	0.000510972
2202.31	0.000717276
2211.95	-5.96599e-05
2221.59	-0.000513831
2231.24	-0.000752451
2240.88	-9.08952e-05
2250.52	0.000452107
2260.16	0.000247371
2269.8	0.00160966
2279.45	0.00238095
2289.09	0.00247147
2298.73	0.00207005
2308.38	0.00317822
2318.02	0.00409908
2327.66	0.00172494
2337.3	0.00238086
2346.94	0.00192844
2356.59	0.0011956
2366.23	0.00112143
2375.87	0.00146587
2385.51	0.00128325
2395.16	0.00166456
2404.8	0.00238435
2414.44	0.00202794
2424.08	0.00131355
2433.72	0.00239213
2443.37	0.0025296
2453.01	0.0024499
2462.65	0.00300502
2472.29	0.00226575
2481.94	0.00134638
2491.58	0.0019981
2501.22	0.00221947
2510.86	0.00297316
2520.51	0.000939473
2530.15	0.00236206
2539.79	0.00206199
2549.43	0.0022386
2559.07	0.00242482
2568.72	0.00287156
2578.36	0.00234866
2588	0.00279073
2597.64	0.00224639
2607.29	0.00303441
2616.93	0.00360055
2626.57	0.00287384
2636.21	0.00365221
2645.86	0.00422931
2655.5	0.00343341
2665.14	0.00272216
2674.78	0.00236987
2684.43	0.00216393
2694.07	0.00273171
2703.71	0.00330062
2713.35	0.00223848
2722.99	0.00291962
2732.64	0.0031879
2742.28	0.00273048
2751.92	0.00327647
2761.56	0.00368194
2771.21	0.00362465
2780.85	0.00432032
2790.49	0.00399651
2800.13	0.0036436
2809.78	0.00434736
2819.42	0.00507466
2829.06	0.0047249
2838.7	0.00466259
2848.34	0.00441694
2857.99	0.00459678
2867.63	0.00586592
2877.27	0.00655032
2886.91	0.00594111
2896.56	0.00749679
2906.2	0.00700357
2915.84	0.00673915
2925.48	0.00740694
2935.13	0.00690608
2944.77	0.00768158
2954.41	0.00743878
2964.05	0.00831787
2973.7	0.0101557
2983.34	0.0100709
2992.98	0.0105754
3002.62	0.0113604
3012.26	0.0116497
3021.91	0.0113635
3031.55	0.0139274
3041.19	0.0134228
3050.83	0.0132055
3060.48	0.0151583
3070.12	0.0172135
3079.76	0.0175617
3089.4	0.0183377
3099.05	0.0176609
3108.69	0.0207313
3118.33	0.0203328
3127.97	0.0210977
3137.61	0.0239576
3147.26	0.0258319
3156.9	0.0266329
3166.54	0.0273643
3176.18	0.0288971
3185.83	0.0298763
3195.47	0.0315844
3205.11	0.0328516
3214.75	0.0339768
3224.4	0.0339776
3234.04	0.0361912
3243.68	0.0358734
3253.32	0.0356996
3262.97	0.0377246
3272.61	0.0390643
3282.25	0.0385472
3291.89	0.0383879
3301.53	0.0411646
3311.18	0.0400079
3320.82	0.0411049
3330.46	0.040933
3340.1	0.0431159
3349.75	0.04426
3359.39	0.0453872
3369.03	0.0450541
3378.67	0.045524
3388.32	0.0453366
3397.96	0.0451372
3407.6	0.0448048
3417.24	0.0450685
3426.89	0.0446836
3436.53	0.0446087
3446.17	0.0417585
3455.81	0.0426788
3465.45	0.0417776
3475.1	0.0400542
3484.74	0.0393885
3494.38	0.0380386
3504.02	0.0351122
3513.67	0.0363574
3523.31	0.0340314
3532.95	0.0319912
3542.59	0.0335357
3552.24	0.0308566
3561.88	0.0311758
3571.52	0.0271432
3581.16	0.0254718
3590.8	0.0244376
3600.45	0.021739
3610.09	0.0170005
3619.73	0.0119019
3629.37	0.0109847
3639.02	0.00830449
3648.66	0.00710756
3658.3	0.000752589
3667.94	-0.000718924
3677.59	-0.00171752
3687.23	-0.0012837
3696.87	-0.00127996
3706.51	-0.00504121
3716.16	7.17326e-05
3725.8	-0.00124896
3735.44	-0.00162123
3745.08	-0.00373042
3754.72	-0.000114361
3764.37	-0.00220816
3774.01	-0.00294881
3783.65	-0.00148894
3793.29	-0.00249728
3802.94	-0.0027839
3812.58	0.00116906
3822.22	-0.00100094
3831.86	-0.00372843
3841.51	-0.00329556
3851.15	-0.00320637
3860.79	-0.00136486
3870.43	-0.00496649
3880.07	-0.00408639
3889.72	-0.000809153
3899.36	-0.00222253
3909	-0.00214212
3918.64	-0.00323911
3928.29	-0.00391764
3937.93	-0.00426589
3947.57	-0.00367497
3957.21	-0.0011042
3966.86	0.0007216
3976.5	-0.00311849
3986.14	-0.000436371
3995.78	-0.00204421
