Measurement: Infrared, Infrared Data Processed
Mineral: Chalcanthite
Rruff sample: R050354
Ideal chemistry: Cu^2+^S^6+^O_4_5H_2_O
Locality: Utah, USA
Source: California Institute of Technology
Description: Group of blue parallel prismatic crystals
Measured chemistry: Cu_1.00_S_1.00_O_4_Â·5H_2_O
x	intensity
399.193	0.147084
408.835	0.15997
418.477	0.171821
428.12	0.184062
437.762	0.199895
447.404	0.184837
457.047	0.165401
466.689	0.16719
476.331	0.16432
485.974	0.159428
495.616	0.162912
505.258	0.167595
514.901	0.177342
524.543	0.185264
534.185	0.191182
543.828	0.195344
553.47	0.198244
563.112	0.20237
572.755	0.205245
582.397	0.211183
592.039	0.222866
601.682	0.245322
611.324	0.254866
620.966	0.231575
630.609	0.179871
640.251	0.152958
649.893	0.140057
659.536	0.132079
669.178	0.127179
678.82	0.122306
688.463	0.115495
698.105	0.10815
707.747	0.0982566
717.39	0.0897742
727.032	0.0820134
736.674	0.0767973
746.317	0.0735953
755.959	0.0716902
765.601	0.0711772
775.244	0.0715838
784.886	0.0719442
794.528	0.0735898
804.171	0.0750023
813.813	0.0764099
823.455	0.0775543
833.098	0.0828996
842.74	0.0909817
852.382	0.0991659
862.025	0.104592
871.667	0.105488
881.309	0.101254
890.952	0.0908552
900.594	0.0814014
910.236	0.073725
919.879	0.0683963
929.521	0.0658773
939.163	0.0654859
948.806	0.0668925
958.448	0.0714007
968.09	0.0780547
977.733	0.0918608
987.375	0.0901148
997.017	0.108401
1006.66	0.130774
1016.3	0.158274
1025.94	0.195745
1035.59	0.244627
1045.23	0.299815
1054.87	0.356176
1064.51	0.397294
1074.16	0.405186
1083.8	0.389748
1093.44	0.368036
1103.08	0.3221
1112.72	0.241833
1122.37	0.167256
1132.01	0.111674
1141.65	0.0731346
1151.3	0.0471551
1160.94	0.0333956
1170.58	0.0266665
1180.22	0.0227944
1189.86	0.0202744
1199.51	0.0188265
1209.15	0.0181066
1218.79	0.0168411
1228.43	0.0159267
1238.08	0.0154126
1247.72	0.0150266
1257.36	0.0143029
1267	0.0145185
1276.64	0.0146385
1286.29	0.0145954
1295.93	0.014453
1305.57	0.0150833
1315.21	0.0151107
1324.86	0.0157818
1334.5	0.0154924
1344.14	0.0156198
1353.78	0.015454
1363.43	0.0156471
1373.07	0.0152994
1382.71	0.0157721
1392.35	0.0164582
1401.99	0.0169767
1411.64	0.016953
1421.28	0.0170548
1430.92	0.0173879
1440.57	0.0171361
1450.21	0.0167214
1459.85	0.0168159
1469.49	0.0176551
1479.13	0.0200431
1488.78	0.0211578
1498.42	0.0220783
1508.06	0.023649
1517.7	0.023762
1527.35	0.0252507
1536.99	0.0261582
1546.63	0.0275287
1556.27	0.0289673
1565.91	0.0299614
1575.56	0.0306403
1585.2	0.0314281
1594.84	0.0326285
1604.48	0.0351264
1614.13	0.0375261
1623.77	0.0420516
1633.41	0.0466312
1643.05	0.0502322
1652.7	0.0517973
1662.34	0.0540221
1671.98	0.0575349
1681.62	0.0455462
1691.27	0.0335673
1700.91	0.0280728
1710.55	0.0222859
1720.19	0.0202329
1729.84	0.0174859
1739.48	0.0145813
1749.12	0.0144207
1758.76	0.0165976
1768.4	0.0162277
1778.05	0.015606
1787.69	0.0149513
1797.33	0.0150467
1806.97	0.01451
1816.62	0.0136361
1826.26	0.0132426
1835.9	0.0143226
1845.54	0.0130093
1855.18	0.0139953
1864.83	0.0128468
1874.47	0.0124911
1884.11	0.0138731
1893.75	0.0134023
1903.4	0.012832
1913.04	0.0131605
1922.68	0.0122646
1932.32	0.0120455
1941.97	0.0095852
1951.61	0.0109899
1961.25	0.00860393
1970.89	0.00752975
1980.54	0.0114608
1990.18	0.0114405
1999.82	0.0120485
2009.46	0.0083492
2019.11	0.0144446
2028.75	0.0113624
2038.39	0.0150411
2048.03	0.0139507
2057.67	0.0173293
2067.32	0.0171163
2076.96	0.0168482
2086.6	0.018593
2096.24	0.0165825
2105.89	0.0180473
2115.53	0.0158111
2125.17	0.0128452
2134.81	0.0098387
2144.45	0.00943456
2154.1	-0.00017799
2163.74	0.00600476
2173.38	0.0061722
2183.02	0.00946104
2192.67	0.00860434
2202.31	0.0118505
2211.95	0.01142
2221.59	0.0118498
2231.24	0.015029
2240.88	0.0179448
2250.52	0.0200553
2260.16	0.0191338
2269.8	0.0206562
2279.45	0.0259063
2289.09	0.02591
2298.73	0.0265512
2308.38	0.0277023
2318.02	0.0296157
2327.66	0.0322101
2337.3	0.0329842
2346.94	0.0326002
2356.59	0.034016
2366.23	0.0364096
2375.87	0.033903
2385.51	0.0336481
2395.16	0.0339566
2404.8	0.0340413
2414.44	0.0358419
2424.08	0.0375112
2433.72	0.0349127
2443.37	0.0368177
2453.01	0.0378474
2462.65	0.0376307
2472.29	0.0374375
2481.94	0.0361757
2491.58	0.0368967
2501.22	0.0372679
2510.86	0.0370834
2520.51	0.0349306
2530.15	0.0343474
2539.79	0.0351444
2549.43	0.0323131
2559.07	0.0317451
2568.72	0.0326887
2578.36	0.0329497
2588	0.0309173
2597.64	0.0309971
2607.29	0.0315739
2616.93	0.0336499
2626.57	0.0337526
2636.21	0.0358593
2645.86	0.0362044
2655.5	0.0357826
2665.14	0.0370645
2674.78	0.0378677
2684.43	0.0381395
2694.07	0.0399504
2703.71	0.0410294
2713.35	0.0423366
2722.99	0.0449879
2732.64	0.0462554
2742.28	0.0489428
2751.92	0.0496456
2761.56	0.052278
2771.21	0.05546
2780.85	0.0572173
2790.49	0.059933
2800.13	0.0626395
2809.78	0.0661869
2819.42	0.0699671
2829.06	0.0732104
2838.7	0.0739616
2848.34	0.0695609
2857.99	0.0739327
2867.63	0.086477
2877.27	0.0912188
2886.91	0.0997752
2896.56	0.101699
2906.2	0.103788
2915.84	0.104283
2925.48	0.104652
2935.13	0.121863
2944.77	0.137975
2954.41	0.149317
2964.05	0.162651
2973.7	0.176225
2983.34	0.191165
2992.98	0.204889
3002.62	0.220967
3012.26	0.238433
3021.91	0.251461
3031.55	0.269365
3041.19	0.287982
3050.83	0.304157
3060.48	0.322806
3070.12	0.339575
3079.76	0.355966
3089.4	0.368216
3099.05	0.380162
3108.69	0.387315
3118.33	0.394669
3127.97	0.396369
3137.61	0.403503
3147.26	0.396972
3156.9	0.39658
3166.54	0.395866
3176.18	0.391379
3185.83	0.385113
3195.47	0.376245
3205.11	0.362936
3214.75	0.345799
3224.4	0.333831
3234.04	0.31803
3243.68	0.309368
3253.32	0.299019
3262.97	0.293463
3272.61	0.287471
3282.25	0.282004
3291.89	0.278639
3301.53	0.273924
3311.18	0.271701
3320.82	0.264672
3330.46	0.259165
3340.1	0.249193
3349.75	0.240237
3359.39	0.232129
3369.03	0.218518
3378.67	0.209381
3388.32	0.194479
3397.96	0.184413
3407.6	0.174344
3417.24	0.164071
3426.89	0.154026
3436.53	0.145862
3446.17	0.140323
3455.81	0.135359
3465.45	0.140287
3475.1	0.134252
3484.74	0.128541
3494.38	0.107488
3504.02	0.088022
3513.67	0.0729418
3523.31	0.0599428
3532.95	0.0509388
3542.59	0.0429701
3552.24	0.0350185
3561.88	0.0346744
3571.52	0.0266609
3581.16	0.018687
3590.8	0.0153506
3600.45	0.0126777
3610.09	0.0127222
3619.73	0.00817365
3629.37	0.000586717
3639.02	0.00617877
3648.66	0.00454405
3658.3	0.00578602
3667.94	0.00242012
3677.59	0.00610957
3687.23	-0.000912371
3696.87	0.00417531
3706.51	0.000276596
3716.16	0.00527679
3725.8	0.00216072
3735.44	-0.000934567
3745.08	0.00672565
3754.72	-0.000659608
3764.37	0.00656616
3774.01	0.002156
3783.65	0.00561854
3793.29	0.00552264
3802.94	0.00467339
3812.58	0.003784
3822.22	0.00832105
3831.86	0.00181469
3841.51	0.00620941
3851.15	0.00685142
3860.79	0.00699947
3870.43	0.0070355
3880.07	0.00138583
3889.72	0.00594017
3899.36	0.00619244
3909	0.00690194
3918.64	0.00708989
3928.29	0.00404209
3937.93	0.00497798
3947.57	0.00812851
3957.21	0.0113407
3966.86	0.0100748
3976.5	0.00557535
3986.14	0.00951982
3995.78	0.0115815
