Measurement: Infrared, Infrared Data Processed
Mineral: Chalcopyrite
Rruff sample: R050559
Ideal chemistry: Cu^1+^Fe^3+^S^2-^_2_
Locality: Recuerdo Vein, Haunzala mine, Huallanca District, Dos de Mayo Province, Huanuco Department, Peru
Source: Dave Bunk Minerals
Description: Brass-yellow striated crystals
Measured chemistry: Cu^1+^_1.00_Fe^3+^_1.00_S_2.00_
x	intensity
399.193	0.261113
408.835	0.274257
418.477	0.288047
428.12	0.304071
437.762	0.304684
447.404	0.311742
457.047	0.320516
466.689	0.326383
476.331	0.326252
485.974	0.330869
495.616	0.341311
505.258	0.345588
514.901	0.349005
524.543	0.353607
534.185	0.354697
543.828	0.358594
553.47	0.362741
563.112	0.364705
572.755	0.367395
582.397	0.369332
592.039	0.373197
601.682	0.37492
611.324	0.375707
620.966	0.378352
630.609	0.380917
640.251	0.382781
649.893	0.381972
659.536	0.385551
669.178	0.386907
678.82	0.387689
688.463	0.390212
698.105	0.391612
707.747	0.39466
717.39	0.397068
727.032	0.39961
736.674	0.402199
746.317	0.405317
755.959	0.408352
765.601	0.411815
775.244	0.413611
784.886	0.416573
794.528	0.418087
804.171	0.420532
813.813	0.424018
823.455	0.424887
833.098	0.428
842.74	0.430691
852.382	0.432709
862.025	0.434648
871.667	0.437537
881.309	0.439016
890.952	0.441277
900.594	0.443742
910.236	0.445798
919.879	0.447792
929.521	0.450976
939.163	0.452974
948.806	0.45535
958.448	0.458636
968.09	0.460223
977.733	0.463065
987.375	0.465409
997.017	0.466485
1006.66	0.468554
1016.3	0.470396
1025.94	0.471246
1035.59	0.474266
1045.23	0.476302
1054.87	0.477171
1064.51	0.478699
1074.16	0.480381
1083.8	0.481255
1093.44	0.481748
1103.08	0.482206
1112.72	0.482643
1122.37	0.482437
1132.01	0.484245
1141.65	0.486533
1151.3	0.487361
1160.94	0.485704
1170.58	0.487274
1180.22	0.488774
1189.86	0.489558
1199.51	0.490764
1209.15	0.489648
1218.79	0.488614
1228.43	0.487831
1238.08	0.488488
1247.72	0.490303
1257.36	0.492575
1267	0.495075
1276.64	0.498904
1286.29	0.500967
1295.93	0.503755
1305.57	0.50664
1315.21	0.508303
1324.86	0.510809
1334.5	0.512472
1344.14	0.514684
1353.78	0.514941
1363.43	0.515801
1373.07	0.518671
1382.71	0.519796
1392.35	0.523319
1401.99	0.525739
1411.64	0.527872
1421.28	0.529245
1430.92	0.53067
1440.57	0.53074
1450.21	0.532497
1459.85	0.531693
1469.49	0.533085
1479.13	0.537751
1488.78	0.540308
1498.42	0.541584
1508.06	0.543655
1517.7	0.544953
1527.35	0.545581
1536.99	0.547402
1546.63	0.54779
1556.27	0.548925
1565.91	0.549508
1575.56	0.551671
1585.2	0.551834
1594.84	0.553093
1604.48	0.553737
1614.13	0.555093
1623.77	0.556079
1633.41	0.556593
1643.05	0.55717
1652.7	0.558766
1662.34	0.559277
1671.98	0.560426
1681.62	0.561805
1691.27	0.56353
1700.91	0.565305
1710.55	0.565138
1720.19	0.566503
1729.84	0.56746
1739.48	0.564622
1749.12	0.565047
1758.76	0.570396
1768.4	0.572988
1778.05	0.574727
1787.69	0.575712
1797.33	0.576456
1806.97	0.577464
1816.62	0.576225
1826.26	0.578536
1835.9	0.577541
1845.54	0.578988
1855.18	0.580126
1864.83	0.578626
1874.47	0.581245
1884.11	0.58235
1893.75	0.581095
1903.4	0.581197
1913.04	0.580391
1922.68	0.579693
1932.32	0.576698
1941.97	0.576052
1951.61	0.574909
1961.25	0.568916
1970.89	0.565244
1980.54	0.565734
1990.18	0.571672
1999.82	0.569466
2009.46	0.566466
2019.11	0.565972
2028.75	0.567204
2038.39	0.573531
2048.03	0.578272
2057.67	0.589757
2067.32	0.589714
2076.96	0.594362
2086.6	0.595095
2096.24	0.599885
2105.89	0.598766
2115.53	0.602019
2125.17	0.599453
2134.81	0.593115
2144.45	0.588871
2154.1	0.578338
2163.74	0.58768
2173.38	0.590411
2183.02	0.597835
2192.67	0.594269
2202.31	0.600523
2211.95	0.601561
2221.59	0.602715
2231.24	0.609483
2240.88	0.611003
2250.52	0.614029
2260.16	0.616882
2269.8	0.619429
2279.45	0.624763
2289.09	0.629846
2298.73	0.631576
2308.38	0.632619
2318.02	0.636118
2327.66	0.639293
2337.3	0.641867
2346.94	0.641875
2356.59	0.64323
2366.23	0.6439
2375.87	0.643355
2385.51	0.64285
2395.16	0.641838
2404.8	0.641948
2414.44	0.643547
2424.08	0.644208
2433.72	0.642512
2443.37	0.645754
2453.01	0.646608
2462.65	0.647438
2472.29	0.647688
2481.94	0.646834
2491.58	0.649472
2501.22	0.651489
2510.86	0.651448
2520.51	0.652726
2530.15	0.651888
2539.79	0.654859
2549.43	0.652732
2559.07	0.65716
2568.72	0.657465
2578.36	0.658062
2588	0.659769
2597.64	0.664405
2607.29	0.664657
2616.93	0.664595
2626.57	0.668463
2636.21	0.670286
2645.86	0.671091
2655.5	0.674201
2665.14	0.675377
2674.78	0.675484
2684.43	0.677462
2694.07	0.679813
2703.71	0.678688
2713.35	0.680525
2722.99	0.681865
2732.64	0.682462
2742.28	0.681558
2751.92	0.684734
2761.56	0.684843
2771.21	0.686798
2780.85	0.688634
2790.49	0.688582
2800.13	0.689634
2809.78	0.692221
2819.42	0.69179
2829.06	0.691822
2838.7	0.694035
2848.34	0.691949
2857.99	0.694417
2867.63	0.694454
2877.27	0.698111
2886.91	0.698636
2896.56	0.698612
2906.2	0.697797
2915.84	0.700303
2925.48	0.699634
2935.13	0.70167
2944.77	0.701836
2954.41	0.701762
2964.05	0.705937
2973.7	0.70438
2983.34	0.707548
2992.98	0.709582
3002.62	0.71071
3012.26	0.709126
3021.91	0.713333
3031.55	0.709593
3041.19	0.711324
3050.83	0.710141
3060.48	0.711495
3070.12	0.708954
3079.76	0.711847
3089.4	0.716213
3099.05	0.715525
3108.69	0.713572
3118.33	0.714615
3127.97	0.718388
3137.61	0.72054
3147.26	0.720988
3156.9	0.71949
3166.54	0.720383
3176.18	0.721993
3185.83	0.724094
3195.47	0.722827
3205.11	0.721926
3214.75	0.724866
3224.4	0.724438
3234.04	0.72613
3243.68	0.727465
3253.32	0.726782
3262.97	0.728772
3272.61	0.73135
3282.25	0.72697
3291.89	0.733158
3301.53	0.729855
3311.18	0.732129
3320.82	0.735326
3330.46	0.737388
3340.1	0.732633
3349.75	0.739349
3359.39	0.737556
3369.03	0.740173
3378.67	0.744129
3388.32	0.745089
3397.96	0.740384
3407.6	0.743021
3417.24	0.743672
3426.89	0.744349
3436.53	0.74409
3446.17	0.743894
3455.81	0.746978
3465.45	0.744385
3475.1	0.747996
3484.74	0.747184
3494.38	0.749192
3504.02	0.750309
3513.67	0.75065
3523.31	0.747366
3532.95	0.752587
3542.59	0.749058
3552.24	0.755413
3561.88	0.752921
3571.52	0.751295
3581.16	0.75652
3590.8	0.75542
3600.45	0.759293
3610.09	0.76143
3619.73	0.761943
3629.37	0.767235
3639.02	0.766627
3648.66	0.770588
3658.3	0.77028
3667.94	0.772281
3677.59	0.772003
3687.23	0.773551
3696.87	0.770844
3706.51	0.777574
3716.16	0.78168
3725.8	0.776615
3735.44	0.787362
3745.08	0.792317
3754.72	0.785555
3764.37	0.78712
3774.01	0.791205
3783.65	0.794238
3793.29	0.797501
3802.94	0.793211
3812.58	0.797817
3822.22	0.79904
3831.86	0.801486
3841.51	0.799109
3851.15	0.803735
3860.79	0.801867
3870.43	0.804326
3880.07	0.808864
3889.72	0.808689
3899.36	0.810588
3909	0.815013
3918.64	0.818317
3928.29	0.813478
3937.93	0.818484
3947.57	0.814423
3957.21	0.820285
3966.86	0.81948
3976.5	0.819045
3986.14	0.824565
3995.78	0.821644
