Measurement: Infrared, Infrared Data Processed
Mineral: Chalcopyrite
Rruff sample: R050222
Ideal chemistry: Cu^1+^Fe^3+^S^2-^_2_
Locality: Iron Cap mine, Landsman Camp, Graham County, Arizona, USA
Source: Bob Downs
Description: Group of brass yellow metallic tetrahedra, dark streaks represent alteration by bacteria where S is left behind
Measured chemistry: Cu_1.00_Fe_1.00_S_2.00_
x	intensity
372.194	0
381.836	0.336073
391.479	0.379655
401.121	0.397466
410.763	0.404604
420.406	0.416781
430.048	0.422355
439.69	0.424105
449.333	0.429254
458.975	0.432776
468.617	0.439959
478.26	0.442287
487.902	0.445676
497.544	0.454947
507.187	0.461422
516.829	0.460963
526.471	0.46432
536.114	0.464887
545.756	0.469333
555.398	0.476975
565.041	0.480373
574.683	0.485732
584.325	0.48816
593.968	0.488956
603.61	0.485881
613.252	0.483268
622.895	0.484787
632.537	0.486463
642.179	0.489936
651.822	0.489426
661.464	0.49305
671.106	0.495699
680.749	0.502201
690.391	0.508271
700.033	0.5166
709.676	0.520605
719.318	0.525999
728.96	0.532373
738.603	0.53847
748.245	0.543691
757.887	0.54886
767.53	0.556541
777.172	0.561867
786.814	0.567737
796.457	0.573386
806.099	0.580041
815.741	0.585303
825.384	0.591656
835.026	0.597018
844.668	0.603248
854.311	0.60825
863.953	0.614457
873.595	0.620386
883.238	0.626754
892.88	0.632584
902.522	0.637651
912.165	0.64363
921.807	0.649439
931.449	0.655813
941.092	0.662471
950.734	0.667836
960.376	0.67414
970.019	0.678832
979.661	0.681483
989.303	0.680945
998.946	0.678711
1008.59	0.677563
1018.23	0.682247
1027.87	0.688476
1037.52	0.688755
1047.16	0.686191
1056.8	0.681508
1066.44	0.676121
1076.08	0.671831
1085.73	0.66617
1095.37	0.659815
1105.01	0.652736
1114.65	0.646622
1124.3	0.641402
1133.94	0.639707
1143.58	0.640683
1153.22	0.639983
1162.87	0.640038
1172.51	0.639207
1182.15	0.635897
1191.79	0.630383
1201.43	0.621856
1211.08	0.612232
1220.72	0.604742
1230.36	0.60281
1240	0.608531
1249.65	0.620354
1259.29	0.635302
1268.93	0.649727
1278.57	0.662507
1288.22	0.673969
1297.86	0.683356
1307.5	0.690698
1317.14	0.697807
1326.79	0.704026
1336.43	0.710221
1346.07	0.715826
1355.71	0.72094
1365.35	0.725309
1375	0.729734
1384.64	0.733704
1394.28	0.737941
1403.92	0.742246
1413.57	0.745807
1423.21	0.749715
1432.85	0.752738
1442.49	0.755991
1452.13	0.759101
1461.78	0.76246
1471.42	0.766144
1481.06	0.770675
1490.7	0.774594
1500.35	0.778756
1509.99	0.782406
1519.63	0.785875
1529.27	0.788905
1538.92	0.791457
1548.56	0.794243
1558.2	0.79678
1567.84	0.800011
1577.49	0.80306
1587.13	0.806234
1596.77	0.808927
1606.41	0.810225
1616.06	0.810417
1625.7	0.808275
1635.34	0.805027
1644.98	0.80318
1654.62	0.801479
1664.27	0.802353
1673.91	0.803899
1683.55	0.807901
1693.19	0.811706
1702.84	0.8154
1712.48	0.818279
1722.12	0.822072
1731.76	0.825097
1741.4	0.827915
1751.05	0.831465
1760.69	0.834576
1770.33	0.837202
1779.97	0.839557
1789.62	0.842793
1799.26	0.845537
1808.9	0.846683
1818.54	0.848549
1828.19	0.850341
1837.83	0.853537
1847.47	0.854236
1857.11	0.856873
1866.76	0.857963
1876.4	0.859706
1886.04	0.860796
1895.68	0.864702
1905.33	0.867343
1914.97	0.869655
1924.61	0.869117
1934.25	0.872407
1943.89	0.875154
1953.54	0.874821
1963.18	0.881263
1972.82	0.882306
1982.46	0.884658
1992.11	0.887821
2001.75	0.89088
2011.39	0.895876
2021.03	0.890391
2030.67	0.904011
2040.32	0.899182
2049.96	0.902667
2059.6	0.903197
2069.24	0.907738
2078.89	0.910193
2088.53	0.912434
2098.17	0.91539
2107.81	0.916595
2117.46	0.919992
2127.1	0.92477
2136.74	0.927371
2146.38	0.926852
2156.03	0.93781
2165.67	0.933176
2175.31	0.933221
2184.95	0.935611
2194.59	0.934824
2204.24	0.939654
2213.88	0.940431
2223.52	0.942338
2233.16	0.944068
2242.81	0.946069
2252.45	0.949708
2262.09	0.947824
2271.73	0.955008
2281.38	0.95456
2291.02	0.955415
2300.66	0.958634
2310.3	0.958128
2319.95	0.960659
2329.59	0.963008
2339.23	0.963978
2348.87	0.967667
2358.51	0.966671
2368.16	0.971428
2377.8	0.973545
2387.44	0.976509
2397.08	0.976639
2406.73	0.977444
2416.37	0.981298
2426.01	0.982536
2435.65	0.982692
2445.3	0.984978
2454.94	0.987455
2464.58	0.989924
2474.22	0.991662
2483.86	0.993044
2493.51	0.995884
2503.15	0.99678
2512.79	0.999089
2522.43	0.999841
2532.08	1.003
2541.72	1.00508
2551.36	1.00622
2561	1.01
2570.65	1.01214
2580.29	1.01432
2589.93	1.01633
2599.57	1.0185
2609.22	1.02045
2618.86	1.02494
2628.5	1.02689
2638.14	1.02929
2647.78	1.03169
2657.43	1.0346
2667.07	1.0356
2676.71	1.03874
2686.35	1.04045
2696	1.04232
2705.64	1.04464
2715.28	1.04606
2724.92	1.04797
2734.57	1.04897
2744.21	1.05143
2753.85	1.05347
2763.49	1.05474
2773.14	1.05718
2782.78	1.05784
2792.42	1.06057
2802.06	1.06126
2811.7	1.06435
2821.35	1.06548
2830.99	1.0673
2840.63	1.06846
2850.27	1.06583
2859.92	1.06911
2869.56	1.07168
2879.2	1.07422
2888.84	1.07633
2898.49	1.07585
2908.13	1.07752
2917.77	1.07392
2927.41	1.07383
2937.05	1.07809
2946.7	1.08116
2956.34	1.08186
2965.98	1.08374
2975.62	1.08558
2985.27	1.08787
2994.91	1.08872
3004.55	1.09046
3014.19	1.09211
3023.84	1.09336
3033.48	1.09505
3043.12	1.09819
3052.76	1.09795
3062.41	1.09785
3072.05	1.10122
3081.69	1.10083
3091.33	1.10223
3100.97	1.10447
3110.62	1.10251
3120.26	1.10516
3129.9	1.10691
3139.54	1.10726
3149.19	1.1074
3158.83	1.10865
3168.47	1.10932
3178.11	1.10839
3187.76	1.11015
3197.4	1.1102
3207.04	1.109
3216.68	1.11061
3226.32	1.11109
3235.97	1.11195
3245.61	1.11229
3255.25	1.1138
3264.89	1.11309
3274.54	1.11447
3284.18	1.11396
3293.82	1.11378
3303.46	1.11482
3313.11	1.11657
3322.75	1.11591
3332.39	1.11495
3342.03	1.11442
3351.68	1.11479
3361.32	1.11384
3370.96	1.11261
3380.6	1.114
3390.24	1.11195
3399.89	1.11193
3409.53	1.11153
3419.17	1.10944
3428.81	1.1087
3438.46	1.10791
3448.1	1.10756
3457.74	1.10526
3467.38	1.10521
3477.03	1.10309
3486.67	1.10234
3496.31	1.1017
3505.95	1.10067
3515.59	1.09913
3525.24	1.09975
3534.88	1.09836
3544.52	1.09785
3554.16	1.09604
3563.81	1.09612
3573.45	1.09583
3583.09	1.09671
3592.73	1.09638
3602.38	1.09702
3612.02	1.10056
3621.66	1.10345
3631.3	1.10876
3640.95	1.11127
3650.59	1.11602
3660.23	1.11965
3669.87	1.12503
3679.51	1.12807
3689.16	1.13005
3698.8	1.13476
3708.44	1.13555
3718.08	1.13947
3727.73	1.14049
3737.37	1.14347
3747.01	1.14566
3756.65	1.14907
3766.3	1.15001
3775.94	1.15059
3785.58	1.15328
3795.22	1.15522
3804.86	1.15791
3814.51	1.15866
3824.15	1.15942
3833.79	1.1623
3843.43	1.16258
3853.08	1.16406
3862.72	1.16746
3872.36	1.16741
3882	1.1705
3891.65	1.17104
3901.29	1.17439
3910.93	1.17416
3920.57	1.17528
3930.22	1.17677
3939.86	1.17836
3949.5	1.17997
3959.14	1.17988
3968.78	1.18311
3978.43	1.18211
3988.07	1.18599
3997.71	1.18657
