Measurement: Infrared, Infrared Data Processed
Mineral: Chondrodite
Rruff sample: R040016
Ideal chemistry: Mg_5_(SiO_4_)_2_F_2_
Locality: Vastmanland, Kafveltorp, Sweden
Source: University of Arizona Mineral Museum
Description: Deep red single crystals embedded in matrix
Measured chemistry: (Mg_4.61_Fe_0.31_Mn_0.07_Ca_0.01_)_Σ=5_(Si_1.00_O_4_)_2_(F_1.16_(OH)_0.84_)_Σ=2_
x	intensity
399.193	0.200788
408.835	0.188969
418.477	0.177959
428.12	0.159668
437.762	0.148723
447.404	0.135817
457.047	0.130201
466.689	0.154374
476.331	0.157073
485.974	0.136966
495.616	0.113948
505.258	0.0888445
514.901	0.0720993
524.543	0.0810625
534.185	0.102594
543.828	0.107986
553.47	0.0938879
563.112	0.0679169
572.755	0.0491822
582.397	0.042318
592.039	0.0544591
601.682	0.0812721
611.324	0.0921322
620.966	0.0830635
630.609	0.0654034
640.251	0.044556
649.893	0.0291588
659.536	0.0216478
669.178	0.018777
678.82	0.0175153
688.463	0.0179153
698.105	0.0182878
707.747	0.0191469
717.39	0.021916
727.032	0.0276068
736.674	0.0397208
746.317	0.0587187
755.959	0.0687553
765.601	0.0570172
775.244	0.0376742
784.886	0.0304554
794.528	0.0350852
804.171	0.0471072
813.813	0.0648269
823.455	0.0870317
833.098	0.122164
842.74	0.173127
852.382	0.176145
862.025	0.189682
871.667	0.235927
881.309	0.255592
890.952	0.24247
900.594	0.215766
910.236	0.190528
919.879	0.170639
929.521	0.152673
939.163	0.142121
948.806	0.148091
958.448	0.142894
968.09	0.126382
977.733	0.117198
987.375	0.114047
997.017	0.109085
1006.66	0.10236
1016.3	0.0916922
1025.94	0.0717457
1035.59	0.0508815
1045.23	0.0344823
1054.87	0.0227485
1064.51	0.0166539
1074.16	0.0143929
1083.8	0.0128023
1093.44	0.0103651
1103.08	0.00702607
1112.72	0.00406137
1122.37	0.00257713
1132.01	0.00174606
1141.65	0.00095709
1151.3	0.000561649
1160.94	0.000480368
1170.58	0.00033984
1180.22	0.000149522
1189.86	-0.000161144
1199.51	-0.000533733
1209.15	-0.000538944
1218.79	-0.000581525
1228.43	-0.00080336
1238.08	-0.000680337
1247.72	-0.000609327
1257.36	-0.000473319
1267	-0.000136547
1276.64	0.00022301
1286.29	0.000157332
1295.93	0.000402228
1305.57	0.000732716
1315.21	0.00101309
1324.86	0.00128461
1334.5	0.00137418
1344.14	0.00177857
1353.78	0.00238356
1363.43	0.00316047
1373.07	0.00382868
1382.71	0.00423619
1392.35	0.00534375
1401.99	0.00692404
1411.64	0.00889952
1421.28	0.0106786
1430.92	0.0122427
1440.57	0.0141222
1450.21	0.0158772
1459.85	0.0168236
1469.49	0.0164922
1479.13	0.014943
1488.78	0.0133437
1498.42	0.0114804
1508.06	0.00960587
1517.7	0.00753501
1527.35	0.00591479
1536.99	0.00550956
1546.63	0.00516115
1556.27	0.00575034
1565.91	0.00610205
1575.56	0.00717474
1585.2	0.00728733
1594.84	0.00777555
1604.48	0.0076937
1614.13	0.0073648
1623.77	0.00672928
1633.41	0.00585051
1643.05	0.00503183
1652.7	0.00491363
1662.34	0.0033996
1671.98	0.00297044
1681.62	0.00228275
1691.27	0.0017816
1700.91	0.00227325
1710.55	0.00169574
1720.19	0.00193356
1729.84	0.00159572
1739.48	0.00098818
1749.12	0.000667882
1758.76	0.000844228
1768.4	0.0010123
1778.05	0.000819219
1787.69	0.000898556
1797.33	0.000845453
1806.97	0.000728625
1816.62	0.00042284
1826.26	0.000895286
1835.9	0.000202227
1845.54	0.000512787
1855.18	0.000114895
1864.83	-0.000103799
1874.47	-0.000154574
1884.11	-0.00051119
1893.75	-0.000543843
1903.4	-0.000741275
1913.04	-0.000977292
1922.68	-0.00118193
1932.32	-0.00111862
1941.97	-0.00162033
1951.61	-0.00162528
1961.25	-0.00261562
1970.89	-0.00328629
1980.54	-8.49777e-05
1990.18	-0.00100043
1999.82	-0.00155762
2009.46	-0.00131772
2019.11	-0.002395
2028.75	-0.00179042
2038.39	-0.000497428
2048.03	0.000196747
2057.67	0.000495731
2067.32	0.000668246
2076.96	0.00105897
2086.6	0.00131193
2096.24	0.000747456
2105.89	0.00173049
2115.53	0.00168237
2125.17	0.000203523
2134.81	-0.000669406
2144.45	0.000416188
2154.1	-0.00348092
2163.74	0.00325492
2173.38	0.00173321
2183.02	0.00305851
2192.67	0.00280741
2202.31	0.00279355
2211.95	0.00158813
2221.59	0.00434964
2231.24	0.00385215
2240.88	0.005123
2250.52	0.00379336
2260.16	0.00365588
2269.8	0.00418169
2279.45	0.00450016
2289.09	0.00506092
2298.73	0.00380222
2308.38	0.00420904
2318.02	0.00511577
2327.66	0.00459038
2337.3	0.00442076
2346.94	0.00370806
2356.59	0.00465072
2366.23	0.00363372
2375.87	0.00304079
2385.51	0.00283721
2395.16	0.00258467
2404.8	0.00274302
2414.44	0.00298874
2424.08	0.00306133
2433.72	0.00340078
2443.37	0.0033064
2453.01	0.00354539
2462.65	0.0027115
2472.29	0.00321481
2481.94	0.00286457
2491.58	0.00320859
2501.22	0.00309907
2510.86	0.00330994
2520.51	0.00353117
2530.15	0.00340819
2539.79	0.00334436
2549.43	0.00330343
2559.07	0.00356309
2568.72	0.00353809
2578.36	0.00412522
2588	0.00427896
2597.64	0.00355428
2607.29	0.00452758
2616.93	0.0046622
2626.57	0.00435819
2636.21	0.0045836
2645.86	0.00408997
2655.5	0.0042806
2665.14	0.00374727
2674.78	0.00349412
2684.43	0.00368658
2694.07	0.00399689
2703.71	0.00373284
2713.35	0.00379143
2722.99	0.0036799
2732.64	0.00388859
2742.28	0.00359013
2751.92	0.00404064
2761.56	0.00409639
2771.21	0.00408729
2780.85	0.00420451
2790.49	0.00428914
2800.13	0.00409551
2809.78	0.00403367
2819.42	0.00428466
2829.06	0.0043266
2838.7	0.00476806
2848.34	0.00534099
2857.99	0.00595668
2867.63	0.00558835
2877.27	0.00489878
2886.91	0.00523493
2896.56	0.0060441
2906.2	0.00653707
2915.84	0.0076511
2925.48	0.00786531
2935.13	0.00711205
2944.77	0.00560157
2954.41	0.00564656
2964.05	0.00556832
2973.7	0.00525497
2983.34	0.0045795
2992.98	0.00471264
3002.62	0.00460361
3012.26	0.00456802
3021.91	0.00474171
3031.55	0.00476752
3041.19	0.00519729
3050.83	0.00550375
3060.48	0.00504783
3070.12	0.00565683
3079.76	0.0055753
3089.4	0.00574849
3099.05	0.00572921
3108.69	0.00570617
3118.33	0.00651081
3127.97	0.00641889
3137.61	0.00685583
3147.26	0.00695257
3156.9	0.00628752
3166.54	0.00719102
3176.18	0.00678008
3185.83	0.0077727
3195.47	0.00711601
3205.11	0.00787048
3214.75	0.00682998
3224.4	0.00757857
3234.04	0.00743661
3243.68	0.00752632
3253.32	0.00822489
3262.97	0.00817282
3272.61	0.00810231
3282.25	0.00804491
3291.89	0.00813217
3301.53	0.00815819
3311.18	0.00794293
3320.82	0.00795135
3330.46	0.00815886
3340.1	0.00876613
3349.75	0.00786783
3359.39	0.00831402
3369.03	0.00904006
3378.67	0.0083014
3388.32	0.00858649
3397.96	0.007977
3407.6	0.0084045
3417.24	0.00807407
3426.89	0.00711386
3436.53	0.00756836
3446.17	0.00827663
3455.81	0.00819778
3465.45	0.0075132
3475.1	0.00728984
3484.74	0.00723164
3494.38	0.00809452
3504.02	0.00768014
3513.67	0.00804872
3523.31	0.00776512
3532.95	0.00924164
3542.59	0.0120392
3552.24	0.0195698
3561.88	0.0284552
3571.52	0.0278082
3581.16	0.00792542
3590.8	0.00411337
3600.45	0.00345282
3610.09	0.00430074
3619.73	0.00405584
3629.37	0.00570418
3639.02	0.00488856
3648.66	0.006886
3658.3	0.00645637
3667.94	0.00770232
3677.59	0.00892849
3687.23	0.0131813
3696.87	0.00853365
3706.51	0.00477746
3716.16	0.00431511
3725.8	0.00263362
3735.44	0.00394874
3745.08	0.0039297
3754.72	0.0012874
3764.37	0.00211627
3774.01	0.00163883
3783.65	0.00234655
3793.29	0.00242491
3802.94	0.00262289
3812.58	0.00251922
3822.22	0.00273032
3831.86	0.00240341
3841.51	0.00291762
3851.15	0.002814
3860.79	0.00217368
3870.43	0.00299059
3880.07	0.00197279
3889.72	0.00289162
3899.36	0.00189619
3909	0.00256801
3918.64	0.000882495
3928.29	0.00139015
3937.93	0.00219699
3947.57	0.00137132
3957.21	0.00158425
3966.86	0.00214101
3976.5	0.00192341
3986.14	0.0015723
3995.78	0.00180166
