Measurement: Infrared, Infrared Data Processed
Mineral: Clinozoisite
Rruff sample: R040085
Ideal chemistry: Ca_2_Al_3_(Si_2_O_7_)(SiO_4_)O(OH)
Locality: Alamos, Sonora, Mexico
Source: University of Arizona Mineral Museum
Description: Divergent aggregate of red thin prismatic crystals
Measured chemistry: Ca_2.03_(Al_0.90_Fe_0.13_)_3_(Si_1.00_O_4_)(Si_2.00_O_7_)O(OH)
x	intensity
399.193	0
408.835	0.275204
418.477	0.23549
428.12	0.214995
437.762	0.219673
447.404	0.2369
457.047	0.235765
466.689	0.219743
476.331	0.218102
485.974	0.196308
495.616	0.196108
505.258	0.211917
514.901	0.229041
524.543	0.22213
534.185	0.211869
543.828	0.201989
553.47	0.192257
563.112	0.17295
572.755	0.158135
582.397	0.137537
592.039	0.112865
601.682	0.108729
611.324	0.0864591
620.966	0.0946042
630.609	0.13018
640.251	0.158142
649.893	0.157948
659.536	0.133333
669.178	0.126861
678.82	0.104243
688.463	0.085305
698.105	0.0685177
707.747	0.0523732
717.39	0.0420451
727.032	0.0436746
736.674	0.0467648
746.317	0.0414546
755.959	0.0414547
765.601	0.0415664
775.244	0.0441345
784.886	0.0488796
794.528	0.0600357
804.171	0.073964
813.813	0.0922783
823.455	0.124826
833.098	0.157316
842.74	0.174911
852.382	0.173197
862.025	0.202847
871.667	0.230799
881.309	0.269405
890.952	0.268127
900.594	0.246057
910.236	0.234009
919.879	0.224782
929.521	0.2528
939.163	0.285773
948.806	0.281073
958.448	0.248021
968.09	0.212382
977.733	0.192949
987.375	0.184212
997.017	0.177556
1006.66	0.171909
1016.3	0.173562
1025.94	0.184519
1035.59	0.195672
1045.23	0.166828
1054.87	0.13138
1064.51	0.118891
1074.16	0.118379
1083.8	0.118506
1093.44	0.121084
1103.08	0.123074
1112.72	0.116629
1122.37	0.103105
1132.01	0.0838537
1141.65	0.0607931
1151.3	0.0400415
1160.94	0.027638
1170.58	0.0206077
1180.22	0.0170145
1189.86	0.0145112
1199.51	0.0123512
1209.15	0.0105342
1218.79	0.00897574
1228.43	0.00795357
1238.08	0.00754928
1247.72	0.00725015
1257.36	0.00696868
1267	0.00703076
1276.64	0.00721753
1286.29	0.00741691
1295.93	0.00747925
1305.57	0.00786076
1315.21	0.00769423
1324.86	0.00831717
1334.5	0.00904138
1344.14	0.00960053
1353.78	0.0104241
1363.43	0.01206
1373.07	0.0140561
1382.71	0.0166408
1392.35	0.0214461
1401.99	0.0266725
1411.64	0.0326385
1421.28	0.0374015
1430.92	0.0402638
1440.57	0.0412664
1450.21	0.0411482
1459.85	0.0388832
1469.49	0.0355373
1479.13	0.0312597
1488.78	0.0272915
1498.42	0.023436
1508.06	0.0199895
1517.7	0.0167142
1527.35	0.0145827
1536.99	0.0129286
1546.63	0.0121811
1556.27	0.011767
1565.91	0.0115086
1575.56	0.0116303
1585.2	0.0120323
1594.84	0.0116027
1604.48	0.0110257
1614.13	0.0112146
1623.77	0.0110983
1633.41	0.0108313
1643.05	0.0111431
1652.7	0.0104289
1662.34	0.0106916
1671.98	0.0100491
1681.62	0.0103137
1691.27	0.010153
1700.91	0.0101405
1710.55	0.00962745
1720.19	0.00929327
1729.84	0.00885353
1739.48	0.00834067
1749.12	0.00843053
1758.76	0.00893898
1768.4	0.00905319
1778.05	0.00897364
1787.69	0.00918877
1797.33	0.00965302
1806.97	0.00912308
1816.62	0.00857842
1826.26	0.00925345
1835.9	0.00942969
1845.54	0.0087975
1855.18	0.00836133
1864.83	0.00829313
1874.47	0.00761912
1884.11	0.00766181
1893.75	0.00800435
1903.4	0.00782828
1913.04	0.00738005
1922.68	0.00744918
1932.32	0.00696768
1941.97	0.0062991
1951.61	0.00664532
1961.25	0.00803518
1970.89	0.00461282
1980.54	0.00865477
1990.18	0.00812303
1999.82	0.00750742
2009.46	0.00904551
2019.11	0.00623611
2028.75	0.00645698
2038.39	0.00857986
2048.03	0.00710431
2057.67	0.00777961
2067.32	0.0070512
2076.96	0.00854752
2086.6	0.00928079
2096.24	0.0098029
2105.89	0.0085722
2115.53	0.0103359
2125.17	0.00743504
2134.81	0.00681258
2144.45	0.00678691
2154.1	0.00598605
2163.74	0.0104724
2173.38	0.00792297
2183.02	0.00985729
2192.67	0.00712656
2202.31	0.00841366
2211.95	0.00996318
2221.59	0.00972343
2231.24	0.0108
2240.88	0.0119738
2250.52	0.0128997
2260.16	0.0112807
2269.8	0.0133712
2279.45	0.0132698
2289.09	0.0149599
2298.73	0.0148389
2308.38	0.0151279
2318.02	0.0158427
2327.66	0.0144661
2337.3	0.0145972
2346.94	0.0150479
2356.59	0.0155761
2366.23	0.014805
2375.87	0.0146061
2385.51	0.0149285
2395.16	0.0145078
2404.8	0.0155257
2414.44	0.0152512
2424.08	0.0157849
2433.72	0.0158087
2443.37	0.0160073
2453.01	0.0163316
2462.65	0.0150437
2472.29	0.0161366
2481.94	0.0160159
2491.58	0.0164915
2501.22	0.016741
2510.86	0.0175963
2520.51	0.0173552
2530.15	0.0166951
2539.79	0.0167073
2549.43	0.017062
2559.07	0.0173071
2568.72	0.0182891
2578.36	0.0163286
2588	0.0168167
2597.64	0.0176801
2607.29	0.0180563
2616.93	0.0182505
2626.57	0.0179913
2636.21	0.0183314
2645.86	0.0182789
2655.5	0.0177414
2665.14	0.0176082
2674.78	0.0173541
2684.43	0.0173948
2694.07	0.0175041
2703.71	0.0178682
2713.35	0.0179628
2722.99	0.0181107
2732.64	0.017938
2742.28	0.0192991
2751.92	0.018352
2761.56	0.0185192
2771.21	0.01864
2780.85	0.0189994
2790.49	0.0188339
2800.13	0.0188493
2809.78	0.0187875
2819.42	0.0196555
2829.06	0.0190547
2838.7	0.0190505
2848.34	0.0187458
2857.99	0.019479
2867.63	0.0187641
2877.27	0.0194051
2886.91	0.0196886
2896.56	0.0195627
2906.2	0.0200109
2915.84	0.0200706
2925.48	0.0188203
2935.13	0.0207279
2944.77	0.0207668
2954.41	0.0209616
2964.05	0.0226013
2973.7	0.0218467
2983.34	0.023281
2992.98	0.0221877
3002.62	0.0226469
3012.26	0.0233222
3021.91	0.0236413
3031.55	0.0232938
3041.19	0.0236272
3050.83	0.0245507
3060.48	0.0233176
3070.12	0.0238081
3079.76	0.0250486
3089.4	0.0248725
3099.05	0.0256038
3108.69	0.0253326
3118.33	0.0268695
3127.97	0.0275169
3137.61	0.0257779
3147.26	0.028452
3156.9	0.0285501
3166.54	0.0277796
3176.18	0.0284403
3185.83	0.0282109
3195.47	0.029638
3205.11	0.031934
3214.75	0.0307161
3224.4	0.0327305
3234.04	0.032257
3243.68	0.0337993
3253.32	0.0345615
3262.97	0.0357886
3272.61	0.0354476
3282.25	0.037001
3291.89	0.0379089
3301.53	0.040703
3311.18	0.0453567
3320.82	0.0492343
3330.46	0.0533177
3340.1	0.0543209
3349.75	0.0531716
3359.39	0.0508361
3369.03	0.0454015
3378.67	0.0389941
3388.32	0.0340975
3397.96	0.033198
3407.6	0.032464
3417.24	0.0319572
3426.89	0.0312242
3436.53	0.0305483
3446.17	0.0309094
3455.81	0.0300732
3465.45	0.0297575
3475.1	0.0302311
3484.74	0.028049
3494.38	0.028881
3504.02	0.0280441
3513.67	0.0289883
3523.31	0.0294608
3532.95	0.0282295
3542.59	0.0293397
3552.24	0.02835
3561.88	0.0282497
3571.52	0.029847
3581.16	0.0313252
3590.8	0.0347337
3600.45	0.0368771
3610.09	0.0403985
3619.73	0.0425168
3629.37	0.0453822
3639.02	0.0394304
3648.66	0.0374442
3658.3	0.0325388
3667.94	0.0329559
3677.59	0.0272692
3687.23	0.0253908
3696.87	0.024042
3706.51	0.0269686
3716.16	0.0249566
3725.8	0.0246387
3735.44	0.0245037
3745.08	0.0265779
3754.72	0.0232035
3764.37	0.0257083
3774.01	0.0276651
3783.65	0.0254534
3793.29	0.0262611
3802.94	0.0265084
3812.58	0.0288421
3822.22	0.0267142
3831.86	0.0247224
3841.51	0.0276065
3851.15	0.0258376
3860.79	0.0276935
3870.43	0.0272324
3880.07	0.0277669
3889.72	0.0271985
3899.36	0.0296812
3909	0.0263456
3918.64	0.025203
3928.29	0.0259577
3937.93	0.0299691
3947.57	0.0267818
3957.21	0.0295592
3966.86	0.0279413
3976.5	0.0273649
3986.14	0.0273989
3995.78	0.0292722
