Measurement: Infrared, Infrared Data Processed
Mineral: Cylindrite
Rruff sample: R050329
Ideal chemistry: FePb_3_Sn_4_Sb_2_S_14_
Locality: Poop√≥ Province, Oruro Department, Bolivia
Source: Lloyd Twaites
Description: Aggregate of silvery white metallic cylindrical tubes
Measured chemistry: Pb_2.76_Sn_4.60_Fe_0.84_Sb_1.80_S_14_
x	intensity
399.193	0.105772
408.835	0.12573
418.477	0.145162
428.12	0.165922
437.762	0.181687
447.404	0.199874
457.047	0.21562
466.689	0.224376
476.331	0.22971
485.974	0.235342
495.616	0.245851
505.258	0.251183
514.901	0.260624
524.543	0.26637
534.185	0.271171
543.828	0.278787
553.47	0.287759
563.112	0.291299
572.755	0.300044
582.397	0.306757
592.039	0.314896
601.682	0.316811
611.324	0.318092
620.966	0.321973
630.609	0.325013
640.251	0.326137
649.893	0.32835
659.536	0.331153
669.178	0.333729
678.82	0.339715
688.463	0.345149
698.105	0.348588
707.747	0.353471
717.39	0.358662
727.032	0.363145
736.674	0.367667
746.317	0.374743
755.959	0.381878
765.601	0.388352
775.244	0.394448
784.886	0.397497
794.528	0.404838
804.171	0.406328
813.813	0.411425
823.455	0.41861
833.098	0.427441
842.74	0.435782
852.382	0.444667
862.025	0.452885
871.667	0.460444
881.309	0.467401
890.952	0.474344
900.594	0.480382
910.236	0.486609
919.879	0.492807
929.521	0.501112
939.163	0.507849
948.806	0.512714
958.448	0.518433
968.09	0.5231
977.733	0.527349
987.375	0.532713
997.017	0.53933
1006.66	0.546786
1016.3	0.553156
1025.94	0.559026
1035.59	0.563688
1045.23	0.566523
1054.87	0.569598
1064.51	0.571386
1074.16	0.574096
1083.8	0.573343
1093.44	0.574004
1103.08	0.574895
1112.72	0.576213
1122.37	0.578369
1132.01	0.582727
1141.65	0.588079
1151.3	0.592551
1160.94	0.594908
1170.58	0.594019
1180.22	0.593342
1189.86	0.595802
1199.51	0.599185
1209.15	0.603385
1218.79	0.607806
1228.43	0.61334
1238.08	0.616261
1247.72	0.621112
1257.36	0.626432
1267	0.63129
1276.64	0.634627
1286.29	0.639277
1295.93	0.644254
1305.57	0.649862
1315.21	0.654706
1324.86	0.658266
1334.5	0.662657
1344.14	0.666392
1353.78	0.671559
1363.43	0.675967
1373.07	0.678077
1382.71	0.679676
1392.35	0.681308
1401.99	0.685393
1411.64	0.689485
1421.28	0.693341
1430.92	0.697289
1440.57	0.701722
1450.21	0.706422
1459.85	0.709717
1469.49	0.710922
1479.13	0.715922
1488.78	0.721117
1498.42	0.726104
1508.06	0.733056
1517.7	0.737389
1527.35	0.74336
1536.99	0.747513
1546.63	0.753582
1556.27	0.758962
1565.91	0.763467
1575.56	0.768748
1585.2	0.772896
1594.84	0.77714
1604.48	0.779835
1614.13	0.782464
1623.77	0.784595
1633.41	0.787849
1643.05	0.791515
1652.7	0.793538
1662.34	0.796597
1671.98	0.801269
1681.62	0.80332
1691.27	0.806037
1700.91	0.810836
1710.55	0.812038
1720.19	0.817513
1729.84	0.822353
1739.48	0.822731
1749.12	0.823625
1758.76	0.828882
1768.4	0.832312
1778.05	0.836562
1787.69	0.840661
1797.33	0.844394
1806.97	0.846948
1816.62	0.849248
1826.26	0.852432
1835.9	0.858106
1845.54	0.860764
1855.18	0.860665
1864.83	0.863905
1874.47	0.869037
1884.11	0.873982
1893.75	0.872723
1903.4	0.875282
1913.04	0.877523
1922.68	0.876867
1932.32	0.875922
1941.97	0.881592
1951.61	0.876087
1961.25	0.867473
1970.89	0.872382
1980.54	0.869105
1990.18	0.880211
1999.82	0.880508
2009.46	0.868874
2019.11	0.878964
2028.75	0.880803
2038.39	0.889137
2048.03	0.907769
2057.67	0.918313
2067.32	0.927155
2076.96	0.934063
2086.6	0.941687
2096.24	0.944283
2105.89	0.94688
2115.53	0.951129
2125.17	0.95687
2134.81	0.946208
2144.45	0.935771
2154.1	0.927444
2163.74	0.93285
2173.38	0.947368
2183.02	0.948653
2192.67	0.960978
2202.31	0.964658
2211.95	0.9731
2221.59	0.97623
2231.24	0.989977
2240.88	0.994726
2250.52	1.00089
2260.16	1.00738
2269.8	1.01549
2279.45	1.02257
2289.09	1.03175
2298.73	1.03732
2308.38	1.04289
2318.02	1.04955
2327.66	1.05595
2337.3	1.05964
2346.94	1.06231
2356.59	1.06576
2366.23	1.06865
2375.87	1.06931
2385.51	1.07257
2395.16	1.076
2404.8	1.07652
2414.44	1.08249
2424.08	1.08292
2433.72	1.08588
2443.37	1.0901
2453.01	1.09621
2462.65	1.09979
2472.29	1.09906
2481.94	1.1045
2491.58	1.10781
2501.22	1.10916
2510.86	1.11762
2520.51	1.11435
2530.15	1.1179
2539.79	1.12354
2549.43	1.12859
2559.07	1.13198
2568.72	1.13302
2578.36	1.13833
2588	1.14474
2597.64	1.15041
2607.29	1.15506
2616.93	1.16058
2626.57	1.16376
2636.21	1.16791
2645.86	1.17481
2655.5	1.17963
2665.14	1.18355
2674.78	1.18546
2684.43	1.18964
2694.07	1.1935
2703.71	1.19947
2713.35	1.19973
2722.99	1.20711
2732.64	1.20723
2742.28	1.21377
2751.92	1.2137
2761.56	1.22087
2771.21	1.2202
2780.85	1.22551
2790.49	1.22643
2800.13	1.23433
2809.78	1.23699
2819.42	1.23941
2829.06	1.24238
2838.7	1.24871
2848.34	1.25297
2857.99	1.24859
2867.63	1.25402
2877.27	1.2626
2886.91	1.26587
2896.56	1.26562
2906.2	1.26964
2915.84	1.27451
2925.48	1.27017
2935.13	1.26793
2944.77	1.2718
2954.41	1.27648
2964.05	1.27939
2973.7	1.28066
2983.34	1.28397
2992.98	1.28689
3002.62	1.29448
3012.26	1.29824
3021.91	1.30089
3031.55	1.30136
3041.19	1.31159
3050.83	1.30935
3060.48	1.31152
3070.12	1.32092
3079.76	1.32221
3089.4	1.32758
3099.05	1.32695
3108.69	1.32926
3118.33	1.3343
3127.97	1.33611
3137.61	1.34076
3147.26	1.34651
3156.9	1.34892
3166.54	1.35038
3176.18	1.35189
3185.83	1.35573
3195.47	1.36277
3205.11	1.36349
3214.75	1.36248
3224.4	1.36435
3234.04	1.37057
3243.68	1.37487
3253.32	1.37394
3262.97	1.38119
3272.61	1.38023
3282.25	1.38817
3291.89	1.39081
3301.53	1.39102
3311.18	1.39281
3320.82	1.39671
3330.46	1.39928
3340.1	1.39546
3349.75	1.4033
3359.39	1.40719
3369.03	1.40708
3378.67	1.40731
3388.32	1.40662
3397.96	1.41095
3407.6	1.41127
3417.24	1.41827
3426.89	1.41533
3436.53	1.41964
3446.17	1.42181
3455.81	1.42514
3465.45	1.42625
3475.1	1.42947
3484.74	1.42906
3494.38	1.43175
3504.02	1.43618
3513.67	1.43151
3523.31	1.42948
3532.95	1.43779
3542.59	1.43355
3552.24	1.4409
3561.88	1.43835
3571.52	1.44534
3581.16	1.44378
3590.8	1.44732
3600.45	1.45283
3610.09	1.45301
3619.73	1.45599
3629.37	1.45607
3639.02	1.46382
3648.66	1.46179
3658.3	1.47462
3667.94	1.47355
3677.59	1.48238
3687.23	1.48922
3696.87	1.48569
3706.51	1.49524
3716.16	1.49872
3725.8	1.50995
3735.44	1.50164
3745.08	1.50337
3754.72	1.49979
3764.37	1.51771
3774.01	1.52123
3783.65	1.51183
3793.29	1.5234
3802.94	1.52903
3812.58	1.53593
3822.22	1.52953
3831.86	1.53925
3841.51	1.5294
3851.15	1.54665
3860.79	1.54544
3870.43	1.55008
3880.07	1.5598
3889.72	1.5636
3899.36	1.56861
3909	1.57148
3918.64	1.5766
3928.29	1.56627
3937.93	1.5788
3947.57	1.57776
3957.21	1.58739
3966.86	1.58488
3976.5	1.58899
3986.14	1.60177
3995.78	1.59257
