Measurement: Infrared, Infrared Data Processed
Mineral: Dawsonite
Rruff sample: R050645
Ideal chemistry: NaAlCO_3_(OH)_2_
Locality: Cerro Sapo, Cochabamba Department, Bolivia
Source: Marcus Origlieri
Description: White fibrous aggregates associated with blue sodalite on pale green ankerite.
Measured chemistry: Na_1.00_(Al_0.99_Fe^3+^_0.01_)_Î£=1_CO_3_(OH)_2_
x	intensity
399.193	0.13546
408.835	0.143102
418.477	0.126046
428.12	0.142186
437.762	0.149823
447.404	0.172289
457.047	0.206528
466.689	0.22944
476.331	0.261639
485.974	0.273295
495.616	0.231588
505.258	0.272935
514.901	0.262701
524.543	0.248125
534.185	0.244776
543.828	0.265523
553.47	0.251699
563.112	0.209491
572.755	0.171598
582.397	0.150388
592.039	0.135721
601.682	0.124895
611.324	0.120104
620.966	0.119197
630.609	0.120697
640.251	0.123084
649.893	0.131102
659.536	0.142287
669.178	0.155747
678.82	0.160354
688.463	0.162444
698.105	0.150427
707.747	0.120666
717.39	0.0949743
727.032	0.0911591
736.674	0.0823844
746.317	0.0772713
755.959	0.0767417
765.601	0.0760791
775.244	0.0736461
784.886	0.0700619
794.528	0.067088
804.171	0.0664883
813.813	0.0687492
823.455	0.0746198
833.098	0.085504
842.74	0.143421
852.382	0.105246
862.025	0.117161
871.667	0.0823351
881.309	0.0777237
890.952	0.0818335
900.594	0.100268
910.236	0.131276
919.879	0.174356
929.521	0.215899
939.163	0.223353
948.806	0.226138
958.448	0.224099
968.09	0.137105
977.733	0.106582
987.375	0.0993771
997.017	0.096622
1006.66	0.0930124
1016.3	0.0885308
1025.94	0.0845182
1035.59	0.0816056
1045.23	0.0781021
1054.87	0.0749988
1064.51	0.0704703
1074.16	0.0651917
1083.8	0.0632252
1093.44	0.084757
1103.08	0.0647568
1112.72	0.0358729
1122.37	0.0281312
1132.01	0.0249965
1141.65	0.0225861
1151.3	0.0205233
1160.94	0.0190472
1170.58	0.0178144
1180.22	0.0170932
1189.86	0.0164808
1199.51	0.0160605
1209.15	0.0161861
1218.79	0.0164102
1228.43	0.0164451
1238.08	0.0170559
1247.72	0.0179622
1257.36	0.0190734
1267	0.0208333
1276.64	0.0238382
1286.29	0.0251066
1295.93	0.0267379
1305.57	0.0288026
1315.21	0.0322377
1324.86	0.0372588
1334.5	0.0439708
1344.14	0.0549613
1353.78	0.069757
1363.43	0.0888325
1373.07	0.128764
1382.71	0.204229
1392.35	0.324087
1401.99	0.339116
1411.64	0.24915
1421.28	0.176049
1430.92	0.138467
1440.57	0.120397
1450.21	0.117857
1459.85	0.126595
1469.49	0.132481
1479.13	0.131389
1488.78	0.122498
1498.42	0.115122
1508.06	0.111051
1517.7	0.111292
1527.35	0.125799
1536.99	0.164313
1546.63	0.202937
1556.27	0.221689
1565.91	0.221453
1575.56	0.199699
1585.2	0.15491
1594.84	0.107247
1604.48	0.0702444
1614.13	0.044615
1623.77	0.0293264
1633.41	0.021658
1643.05	0.0182193
1652.7	0.0168448
1662.34	0.0157481
1671.98	0.0144331
1681.62	0.0142393
1691.27	0.0131401
1700.91	0.0136195
1710.55	0.0170775
1720.19	0.0180472
1729.84	0.0171016
1739.48	0.0142957
1749.12	0.0119694
1758.76	0.0118906
1768.4	0.0144852
1778.05	0.0136217
1787.69	0.0112331
1797.33	0.0109081
1806.97	0.0111668
1816.62	0.0126644
1826.26	0.0138171
1835.9	0.0107551
1845.54	0.00883397
1855.18	0.00805002
1864.83	0.00797142
1874.47	0.00830862
1884.11	0.00816035
1893.75	0.00786394
1903.4	0.00735256
1913.04	0.00654983
1922.68	0.00605552
1932.32	0.00779298
1941.97	0.00553748
1951.61	0.00568162
1961.25	0.00684184
1970.89	0.0046464
1980.54	0.00964841
1990.18	0.00875442
1999.82	0.00604074
2009.46	0.00720228
2019.11	0.00944636
2028.75	0.00824657
2038.39	0.00729812
2048.03	0.00945638
2057.67	0.0116851
2067.32	0.0086299
2076.96	0.00995552
2086.6	0.0102897
2096.24	0.00959608
2105.89	0.00993644
2115.53	0.00712477
2125.17	0.00717286
2134.81	0.00358505
2144.45	0.00308253
2154.1	-0.00200503
2163.74	0.00411279
2173.38	0.00534855
2183.02	0.000662869
2192.67	0.00396063
2202.31	0.00370397
2211.95	0.00700401
2221.59	0.00743636
2231.24	0.00708443
2240.88	0.00990903
2250.52	0.00924313
2260.16	0.00967373
2269.8	0.0101866
2279.45	0.0114648
2289.09	0.0118218
2298.73	0.0110172
2308.38	0.011122
2318.02	0.0141382
2327.66	0.0121438
2337.3	0.0122431
2346.94	0.0118074
2356.59	0.0122767
2366.23	0.0127152
2375.87	0.0106886
2385.51	0.00986395
2395.16	0.0114329
2404.8	0.0118672
2414.44	0.0113454
2424.08	0.0104104
2433.72	0.0115008
2443.37	0.0125799
2453.01	0.0118467
2462.65	0.0145657
2472.29	0.013818
2481.94	0.0146841
2491.58	0.0137361
2501.22	0.0137766
2510.86	0.0136132
2520.51	0.0149295
2530.15	0.0129754
2539.79	0.0142659
2549.43	0.0141051
2559.07	0.0132081
2568.72	0.012866
2578.36	0.0144672
2588	0.0149004
2597.64	0.0178122
2607.29	0.0187221
2616.93	0.0150879
2626.57	0.014748
2636.21	0.0170968
2645.86	0.015343
2655.5	0.0166862
2665.14	0.0148933
2674.78	0.014078
2684.43	0.0138011
2694.07	0.0143534
2703.71	0.014627
2713.35	0.0146896
2722.99	0.013825
2732.64	0.0147782
2742.28	0.0150632
2751.92	0.01458
2761.56	0.0148841
2771.21	0.0142674
2780.85	0.0147498
2790.49	0.0146889
2800.13	0.0154315
2809.78	0.0149073
2819.42	0.0155881
2829.06	0.0167176
2838.7	0.0175888
2848.34	0.0177152
2857.99	0.017967
2867.63	0.0200752
2877.27	0.0193305
2886.91	0.0221784
2896.56	0.0223734
2906.2	0.0231569
2915.84	0.0233743
2925.48	0.0205833
2935.13	0.0214624
2944.77	0.0240124
2954.41	0.0245046
2964.05	0.0272026
2973.7	0.0277708
2983.34	0.027576
2992.98	0.0297362
3002.62	0.0300028
3012.26	0.0323072
3021.91	0.0325071
3031.55	0.0363272
3041.19	0.037925
3050.83	0.0418549
3060.48	0.0428929
3070.12	0.045575
3079.76	0.0459845
3089.4	0.0490144
3099.05	0.0528473
3108.69	0.0541142
3118.33	0.0558697
3127.97	0.0571292
3137.61	0.0619629
3147.26	0.0670023
3156.9	0.073365
3166.54	0.0784175
3176.18	0.0855979
3185.83	0.093362
3195.47	0.103434
3205.11	0.115645
3214.75	0.131061
3224.4	0.149118
3234.04	0.169824
3243.68	0.198867
3253.32	0.244007
3262.97	0.290538
3272.61	0.326248
3282.25	0.327312
3291.89	0.271293
3301.53	0.205035
3311.18	0.159541
3320.82	0.130837
3330.46	0.115364
3340.1	0.108134
3349.75	0.106131
3359.39	0.102263
3369.03	0.0966322
3378.67	0.0943915
3388.32	0.0929074
3397.96	0.0873248
3407.6	0.0868464
3417.24	0.0859437
3426.89	0.0844389
3436.53	0.0822739
3446.17	0.0793324
3455.81	0.0794783
3465.45	0.0806359
3475.1	0.0824103
3484.74	0.0883391
3494.38	0.085813
3504.02	0.0871686
3513.67	0.0835619
3523.31	0.0810755
3532.95	0.0792561
3542.59	0.0740992
3552.24	0.0729742
3561.88	0.0741626
3571.52	0.0626137
3581.16	0.0470078
3590.8	0.0432999
3600.45	0.0382155
3610.09	0.0363074
3619.73	0.0412151
3629.37	0.032141
3639.02	0.0266158
3648.66	0.025678
3658.3	0.0228548
3667.94	0.0154739
3677.59	0.0153994
3687.23	0.0129504
3696.87	0.0171401
3706.51	0.0115578
3716.16	0.00892914
3725.8	0.0112882
3735.44	0.0129496
3745.08	0.0114039
3754.72	0.0130141
3764.37	0.011862
3774.01	0.00451357
3783.65	0.0107703
3793.29	0.0102125
3802.94	0.0125822
3812.58	0.0120858
3822.22	0.0138548
3831.86	0.0118001
3841.51	0.0133657
3851.15	0.0118955
3860.79	0.0104648
3870.43	0.00865815
3880.07	0.00832012
3889.72	0.0114695
3899.36	0.00621371
3909	0.00958097
3918.64	0.0141465
3928.29	0.0085288
3937.93	0.0136996
3947.57	0.0128804
3957.21	0.0128202
3966.86	0.0124713
3976.5	0.0101686
3986.14	0.00971691
3995.78	0.0138986
