Measurement: Infrared, Infrared Data Processed
Mineral: Dolomite
Rruff sample: R050272
Ideal chemistry: CaMg(CO_3_)_2_
Locality: Eagle mine, Gillman, Colorado, USA
Source: University of Arizona Mineral Museum
Description: Gray-white rhombohedral crystals
Measured chemistry: (Ca_0.96_Fe^2+^_0.04_)_Σ=1_(Mg_0.63_Mn^2+^_0.21_Fe^2+^_0.16_)_Σ=1_(CO_3_)_2_ ; CO_3_ estimated by difference and stoichiometry
x	intensity
374.123	0.168902
383.765	0.138227
393.407	0.106222
403.05	0.0836023
412.692	0.0622097
422.334	0.04646
431.976	0.0339957
441.619	0.0276696
451.261	0.0262601
460.904	0.023564
470.546	0.0229656
480.188	0.0208412
489.83	0.0191339
499.473	0.0168054
509.115	0.0157568
518.758	0.0148261
528.4	0.0146139
538.042	0.0140243
547.684	0.0131109
557.327	0.0122983
566.969	0.0117257
576.611	0.0109238
586.254	0.0106524
595.896	0.0100429
605.538	0.0100798
615.181	0.0101025
624.823	0.010348
634.466	0.0106983
644.108	0.010816
653.75	0.0113274
663.393	0.0122995
673.035	0.0126069
682.677	0.0132462
692.319	0.0139986
701.962	0.016108
711.604	0.0234154
721.246	0.0639718
730.889	0.0612681
740.531	0.0144981
750.173	0.0104887
759.816	0.00976275
769.458	0.010218
779.101	0.010463
788.743	0.0109017
798.385	0.0115778
808.028	0.0124437
817.67	0.0137441
827.312	0.0155845
836.955	0.0194908
846.597	0.0361043
856.239	0.0549592
865.881	0.198404
875.524	0.28367
885.166	0.136622
894.808	0.0201956
904.451	0.0157065
914.093	0.0158679
923.736	0.0161465
933.378	0.0165339
943.02	0.0174565
952.663	0.0185147
962.305	0.0197237
971.947	0.0213213
981.59	0.0231901
991.232	0.0256089
1000.87	0.0290869
1010.52	0.033199
1020.16	0.0369204
1029.8	0.0383882
1039.44	0.0375951
1049.09	0.0350376
1058.73	0.0331793
1068.37	0.033742
1078.01	0.0351522
1087.65	0.0376692
1097.3	0.0380901
1106.94	0.0374223
1116.58	0.0377678
1126.22	0.038082
1135.87	0.0397807
1145.51	0.0420823
1155.15	0.0443216
1164.79	0.0473168
1174.44	0.0509713
1184.08	0.054317
1193.72	0.0577383
1203.36	0.061115
1213.01	0.0654488
1222.65	0.0712908
1232.29	0.0770883
1241.93	0.0839356
1251.58	0.0923764
1261.22	0.102395
1270.86	0.114875
1280.5	0.129266
1290.14	0.142683
1299.79	0.158725
1309.43	0.178696
1319.07	0.202746
1328.71	0.231699
1338.36	0.26642
1348	0.307769
1357.64	0.357616
1367.28	0.415384
1376.92	0.48069
1386.57	0.549946
1396.21	0.616086
1405.85	0.650432
1415.49	0.651363
1425.14	0.61319
1434.78	0.55638
1444.42	0.508394
1454.06	0.461343
1463.71	0.410128
1473.35	0.360892
1482.99	0.316902
1492.63	0.276193
1502.28	0.233665
1511.92	0.194241
1521.56	0.159394
1531.2	0.125813
1540.85	0.0955623
1550.49	0.0669163
1560.13	0.0407363
1569.77	0.0197129
1579.41	0.0138736
1589.06	0.012247
1598.7	0.0112013
1608.34	0.00901658
1617.98	0.00737917
1627.63	0.0059985
1637.27	0.00511006
1646.91	0.00461209
1656.55	0.0033078
1666.19	0.00244364
1675.84	0.00215926
1685.48	0.00183232
1695.12	0.0016077
1704.77	0.000895558
1714.41	0.00113931
1724.05	0.000386734
1733.69	0.00023691
1743.33	-0.00111478
1752.98	-0.00125095
1762.62	-0.000798744
1772.26	9.37685e-05
1781.9	0.000687377
1791.55	0.00286668
1801.19	0.00650594
1810.83	0.00932799
1820.47	0.00630597
1830.12	0.00131787
1839.76	-0.00122008
1849.4	-0.00150293
1859.04	-0.00204501
1868.68	-0.00223119
1878.33	-0.00218746
1887.97	-0.00238424
1897.61	-0.00234155
1907.25	-0.00177333
1916.9	-0.00167383
1926.54	-0.00189565
1936.18	-0.00180647
1945.82	-0.00128842
1955.46	-0.00238227
1965.11	-0.000458583
1974.75	4.47324e-05
1984.39	0.000357718
1994.04	-0.000921368
2003.68	-0.0006363
2013.32	0.00061142
2022.96	-0.00148793
2032.6	0.000386473
2042.25	-0.000785843
2051.89	-0.000372094
2061.53	-0.00101023
2071.17	-0.00167797
2080.82	-0.00184642
2090.46	-0.00247303
2100.1	-0.00197509
2109.74	-0.00244868
2119.39	-0.00248745
2129.03	-0.00314285
2138.67	-0.0028961
2148.31	-0.00269866
2157.95	-0.00371884
2167.6	-0.0010439
2177.24	-0.00153037
2186.88	-0.000422921
2196.52	-0.000348022
2206.17	0.000180739
2215.81	-0.00027956
2225.45	-0.000173047
2235.09	-0.000819514
2244.74	-0.000159091
2254.38	0.000248146
2264.02	-9.3638e-05
2273.66	0.000237568
2283.3	0.000293839
2292.95	-0.000143775
2302.59	0.000316634
2312.23	9.56161e-05
2321.87	0.00122471
2331.52	0.000731323
2341.16	0.000536147
2350.8	-0.000389502
2360.44	0.000854212
2370.09	-5.13059e-05
2379.73	-0.000870948
2389.37	-0.000785998
2399.01	-0.000822399
2408.66	-0.000379774
2418.3	-0.000462774
2427.94	-0.000394695
2437.58	-0.000368569
2447.22	-0.000136884
2456.87	0.00010703
2466.51	0.000610226
2476.15	0.00114937
2485.79	0.00197041
2495.44	0.00365948
2505.08	0.00613131
2514.72	0.00848918
2524.36	0.008226
2534.01	0.00740507
2543.65	0.00510086
2553.29	0.00382146
2562.93	0.00260043
2572.57	0.00204034
2582.22	0.00156854
2591.86	0.00048665
2601.5	0.00106294
2611.14	0.00150084
2620.79	0.00186817
2630.43	0.00123762
2640.07	0.000730197
2649.71	8.35471e-06
2659.36	-0.000468452
2669	-0.00114166
2678.64	-0.0012299
2688.28	-0.000805336
2697.93	-0.00130307
2707.57	-0.00153582
2717.21	-0.00152516
2726.85	-0.00155265
2736.49	-0.00172371
2746.14	-0.0015889
2755.78	-0.00182877
2765.42	-0.00191664
2775.06	-0.00148439
2784.71	-0.00161944
2794.35	-0.00193028
2803.99	-0.00167492
2813.63	-0.00122493
2823.28	-0.001293
2832.92	-0.000972334
2842.56	-4.39308e-05
2852.2	0.00105001
2861.84	0.00209646
2871.49	0.0023105
2881.13	0.0029294
2890.77	0.00331191
2900.41	0.0030416
2910.06	0.00266202
2919.7	0.00287159
2929.34	0.00317417
2938.98	0.00201336
2948.62	0.00195564
2958.27	0.00233991
2967.91	0.00252179
2977.55	0.00238899
2987.2	0.00255972
2996.84	0.00286059
3006.48	0.00359416
3016.12	0.00330136
3025.76	0.00262409
3035.41	0.00192517
3045.05	0.00243726
3054.69	0.00286684
3064.33	0.00340304
3073.98	0.0036337
3083.62	0.00417146
3093.26	0.00397435
3102.9	0.00491681
3112.55	0.00576203
3122.19	0.00609355
3131.83	0.00607753
3141.47	0.00690351
3151.11	0.00678502
3160.76	0.00729293
3170.4	0.00780738
3180.04	0.00777981
3189.68	0.00791297
3199.33	0.00780244
3208.97	0.0087108
3218.61	0.00814257
3228.25	0.00821784
3237.9	0.00873465
3247.54	0.0080063
3257.18	0.00803668
3266.82	0.0090232
3276.47	0.00854297
3286.11	0.0083911
3295.75	0.00840067
3305.39	0.00794158
3315.03	0.00891104
3324.68	0.00889883
3334.32	0.00894341
3343.96	0.0083822
3353.6	0.00880082
3363.25	0.00924211
3372.89	0.0089136
3382.53	0.00910574
3392.17	0.00955292
3401.82	0.00833845
3411.46	0.00900369
3421.1	0.00845811
3430.74	0.00857409
3440.39	0.00872866
3450.03	0.00856032
3459.67	0.00820822
3469.31	0.00877639
3478.95	0.00819035
3488.6	0.00769259
3498.24	0.00828598
3507.88	0.00796166
3517.52	0.00791595
3527.17	0.00650102
3536.81	0.00716138
3546.45	0.00646223
3556.09	0.00647023
3565.74	0.00645385
3575.38	0.00578161
3585.02	0.0062166
3594.66	0.00698423
3604.3	0.00547688
3613.95	0.00488267
3623.59	0.00563103
3633.23	0.0052521
3642.87	0.00462542
3652.52	0.00501472
3662.16	0.00397502
3671.8	0.00532414
3681.44	0.00324765
3691.09	0.00376066
3700.73	0.00530745
3710.37	0.00438871
3720.01	0.00390756
3729.66	0.00331466
3739.3	0.00325285
3748.94	0.00496964
3758.58	0.00364183
3768.22	0.00400068
3777.87	0.00356963
3787.51	0.00314336
3797.15	0.00427438
3806.79	0.00417988
3816.44	0.00387977
3826.08	0.00258241
3835.72	0.00451466
3845.36	0.00283612
3855.01	0.00424731
3864.65	0.00363223
3874.29	0.00323522
3883.93	0.00393442
3893.57	0.00261349
3903.22	0.00298155
3912.86	0.00338201
3922.5	0.00335641
3932.14	0.0037671
3941.79	0.00300298
3951.43	0.00268213
3961.07	0.00340663
3970.71	0.0027196
3980.36	0.00194645
3990	0.00260587
3999.64	0.00291608
