Measurement: Infrared, Infrared Data Processed
Mineral: Dumortierite
Rruff sample: R060069
Ideal chemistry: AlAl_6_BSi_3_O_18_
Locality: Dehesa, San Diego County, California, USA
Source: University of Arizona Mineral Museum
Description: Radial aggregate of purple acicular crystals
Measured chemistry: (Al_6.89_Ti_0.11_)_Σ=7_(BO_3_)(Si_2.89_Al_0.11_)_Σ=1_O_4_)_3_O_3_ ; B not measured but estimated by difference and charge balance
x	intensity
374.123	0.263672
383.765	0.282409
393.407	0.288018
403.05	0.311938
412.692	0.324386
422.334	0.303607
431.976	0.264456
441.619	0.197869
451.261	0.237237
460.904	0.284982
470.546	0.297657
480.188	0.28118
489.83	0.249668
499.473	0.227146
509.115	0.242628
518.758	0.280833
528.4	0.296617
538.042	0.282639
547.684	0.256765
557.327	0.242682
566.969	0.237339
576.611	0.228721
586.254	0.216575
595.896	0.212095
605.538	0.216398
615.181	0.218408
624.823	0.219004
634.466	0.21516
644.108	0.196495
653.75	0.163718
663.393	0.138399
673.035	0.116696
682.677	0.11548
692.319	0.12528
701.962	0.126745
711.604	0.136756
721.246	0.145269
730.889	0.13689
740.531	0.128803
750.173	0.136654
759.816	0.138996
769.458	0.115123
779.101	0.0949387
788.743	0.0749841
798.385	0.0696744
808.028	0.0886347
817.67	0.104586
827.312	0.110636
836.955	0.133843
846.597	0.140164
856.239	0.137187
865.881	0.128935
875.524	0.127646
885.166	0.130726
894.808	0.137033
904.451	0.148467
914.093	0.163509
923.736	0.16082
933.378	0.17622
943.02	0.189181
952.663	0.180864
962.305	0.160811
971.947	0.161544
981.59	0.161726
991.232	0.171766
1000.87	0.205101
1010.52	0.208201
1020.16	0.190681
1029.8	0.208101
1039.44	0.199692
1049.09	0.195831
1058.73	0.170872
1068.37	0.153314
1078.01	0.117225
1087.65	0.0828745
1097.3	0.0660281
1106.94	0.0612498
1116.58	0.0708878
1126.22	0.0582068
1135.87	0.0380471
1145.51	0.0289752
1155.15	0.0253506
1164.79	0.0238979
1174.44	0.0209196
1184.08	0.0166517
1193.72	0.0145548
1203.36	0.0128026
1213.01	0.0114114
1222.65	0.0109484
1232.29	0.0105857
1241.93	0.0108713
1251.58	0.0113723
1261.22	0.0114807
1270.86	0.0112937
1280.5	0.0125185
1290.14	0.014514
1299.79	0.0171031
1309.43	0.0209339
1319.07	0.0283183
1328.71	0.0384459
1338.36	0.0579715
1348	0.0953162
1357.64	0.118096
1367.28	0.11568
1376.92	0.107169
1386.57	0.0986742
1396.21	0.0796695
1405.85	0.0589105
1415.49	0.0445605
1425.14	0.0351199
1434.78	0.0285816
1444.42	0.0229784
1454.06	0.0161232
1463.71	0.00888054
1473.35	0.00477351
1482.99	0.00289943
1492.63	0.00254816
1502.28	0.00240403
1511.92	0.00252168
1521.56	0.00300585
1531.2	0.00272969
1540.85	0.00365928
1550.49	0.00320621
1560.13	0.0043315
1569.77	0.00408655
1579.41	0.00428708
1589.06	0.00433863
1598.7	0.00495156
1608.34	0.0053285
1617.98	0.00618513
1627.63	0.00619133
1637.27	0.00686627
1646.91	0.0069928
1656.55	0.00630978
1666.19	0.00591931
1675.84	0.00590564
1685.48	0.00631536
1695.12	0.00661113
1704.77	0.00598405
1714.41	0.00587202
1724.05	0.005031
1733.69	0.00521256
1743.33	0.00426378
1752.98	0.00390427
1762.62	0.00409241
1772.26	0.00416882
1781.9	0.00376837
1791.55	0.00423699
1801.19	0.00395618
1810.83	0.00408238
1820.47	0.00394008
1830.12	0.00437615
1839.76	0.00398941
1849.4	0.00402797
1859.04	0.00390032
1868.68	0.0036992
1878.33	0.00359807
1887.97	0.00349478
1897.61	0.00356553
1907.25	0.00377091
1916.9	0.00420159
1926.54	0.003675
1936.18	0.00354189
1945.82	0.00340856
1955.46	0.00283885
1965.11	0.00403052
1974.75	0.00409069
1984.39	0.00564878
1994.04	0.0032852
2003.68	0.002873
2013.32	0.00425175
2022.96	0.00343483
2032.6	0.00391763
2042.25	0.00363286
2051.89	0.00376617
2061.53	0.00376831
2071.17	0.00341301
2080.82	0.00307623
2090.46	0.00347752
2100.1	0.00377272
2109.74	0.00281508
2119.39	0.00329771
2129.03	0.00256307
2138.67	0.00282427
2148.31	0.0032131
2157.95	0.00382219
2167.6	0.00613123
2177.24	0.00726778
2186.88	0.00871245
2196.52	0.00835964
2206.17	0.00901579
2215.81	0.00851494
2225.45	0.00883866
2235.09	0.00858408
2244.74	0.00799569
2254.38	0.00930353
2264.02	0.00870544
2273.66	0.00956414
2283.3	0.00964046
2292.95	0.00898859
2302.59	0.00916758
2312.23	0.00939157
2321.87	0.0102179
2331.52	0.00930103
2341.16	0.00944966
2350.8	0.00867313
2360.44	0.00969659
2370.09	0.00980431
2379.73	0.00942179
2389.37	0.0096403
2399.01	0.00975081
2408.66	0.0104472
2418.3	0.0103998
2427.94	0.0108797
2437.58	0.0110945
2447.22	0.0116369
2456.87	0.0111924
2466.51	0.0116073
2476.15	0.0115962
2485.79	0.0112865
2495.44	0.0112478
2505.08	0.0109046
2514.72	0.0110544
2524.36	0.0106508
2534.01	0.010974
2543.65	0.0112792
2553.29	0.0112677
2562.93	0.0108088
2572.57	0.0107435
2582.22	0.0106785
2591.86	0.0104122
2601.5	0.010421
2611.14	0.0105761
2620.79	0.0106887
2630.43	0.0103918
2640.07	0.0107531
2649.71	0.0107536
2659.36	0.0107271
2669	0.0104163
2678.64	0.0105249
2688.28	0.0105979
2697.93	0.0103277
2707.57	0.0104
2717.21	0.0105372
2726.85	0.0109586
2736.49	0.0113071
2746.14	0.0114479
2755.78	0.011861
2765.42	0.0119081
2775.06	0.0124999
2784.71	0.0127405
2794.35	0.0126817
2803.99	0.0137211
2813.63	0.013989
2823.28	0.0142505
2832.92	0.0148272
2842.56	0.0161338
2852.2	0.0178798
2861.84	0.0178214
2871.49	0.0171368
2881.13	0.0169938
2890.77	0.0179701
2900.41	0.0190119
2910.06	0.0200675
2919.7	0.0224064
2929.34	0.0226395
2938.98	0.0198164
2948.62	0.0197041
2958.27	0.0200359
2967.91	0.0189012
2977.55	0.0174311
2987.2	0.0170331
2996.84	0.0174526
3006.48	0.0176036
3016.12	0.0186372
3025.76	0.0173903
3035.41	0.0172302
3045.05	0.0177674
3054.69	0.0181538
3064.33	0.0177905
3073.98	0.0181856
3083.62	0.0182198
3093.26	0.0180865
3102.9	0.0193223
3112.55	0.0194172
3122.19	0.0194381
3131.83	0.0194341
3141.47	0.0195923
3151.11	0.0195049
3160.76	0.0202503
3170.4	0.020668
3180.04	0.0204539
3189.68	0.0206826
3199.33	0.0209118
3208.97	0.0209073
3218.61	0.0211261
3228.25	0.0212009
3237.9	0.0215491
3247.54	0.0212982
3257.18	0.0214468
3266.82	0.0222661
3276.47	0.0216558
3286.11	0.0210623
3295.75	0.0219729
3305.39	0.0215517
3315.03	0.0216193
3324.68	0.0217453
3334.32	0.0221819
3343.96	0.0216285
3353.6	0.0217438
3363.25	0.0220844
3372.89	0.0222022
3382.53	0.02242
3392.17	0.0223818
3401.82	0.0219503
3411.46	0.0222401
3421.1	0.0220784
3430.74	0.0219461
3440.39	0.0219708
3450.03	0.0226118
3459.67	0.0224701
3469.31	0.0231703
3478.95	0.0239028
3488.6	0.0244612
3498.24	0.0242556
3507.88	0.0240078
3517.52	0.0229126
3527.17	0.0207635
3536.81	0.0208419
3546.45	0.0194773
3556.09	0.0200405
3565.74	0.0201541
3575.38	0.0199092
3585.02	0.020487
3594.66	0.0214154
3604.3	0.0221812
3613.95	0.0298145
3623.59	0.0408628
3633.23	0.0291855
3642.87	0.0315516
3652.52	0.0373214
3662.16	0.0322843
3671.8	0.053843
3681.44	0.0329005
3691.09	0.0434519
3700.73	0.0373594
3710.37	0.0190352
3720.01	0.0099027
3729.66	0.00827647
3739.3	0.007855
3748.94	0.0083327
3758.58	0.0078492
3768.22	0.00722143
3777.87	0.00711702
3787.51	0.00710503
3797.15	0.00710425
3806.79	0.00711885
3816.44	0.00801327
3826.08	0.00730019
3835.72	0.00750357
3845.36	0.00754112
3855.01	0.00846335
3864.65	0.00746414
3874.29	0.00763058
3883.93	0.00791026
3893.57	0.0063622
3903.22	0.00671143
3912.86	0.00733344
3922.5	0.0064367
3932.14	0.00685207
3941.79	0.00620649
3951.43	0.00640458
3961.07	0.00688569
3970.71	0.00618386
3980.36	0.00719213
3990	0.00767921
3999.64	0.00695384
