Measurement: Infrared, Infrared Data Processed
Mineral: Elbaite
Rruff sample: R050487
Ideal chemistry: Na(Al_1.5_Li_1.5_)Al_6_(Si_6_O_18_)(BO_3_)_3_(OH)_3_OH
Locality: White Queen mine, Pala, San Diego County, California, USA
Source: California Institute of Technology
Description: Mass of blue acicular crystals
Measured chemistry: (Na_0.86_[box]_0.13_Ca_0.01_)(Al_0.42_Li_0.38_Fe^2+^_0.18_Mn_0.02_)_3_Al_6_(BO_3_)_3_Si_6_O_18_((OH)_0.85_F_0.15_)_4_
x	intensity
395.336	0.319754
404.978	0.324458
414.62	0.343425
424.263	0.366702
433.905	0.356197
443.547	0.369085
453.19	0.346287
462.832	0.325958
472.474	0.32896
482.117	0.335956
491.759	0.347178
501.401	0.334685
511.044	0.2964
520.686	0.262033
530.328	0.233095
539.971	0.216805
549.613	0.215224
559.255	0.200337
568.898	0.18291
578.54	0.17975
588.182	0.173719
597.825	0.153833
607.467	0.149379
617.109	0.156351
626.752	0.151166
636.394	0.131879
646.036	0.118661
655.679	0.12013
665.321	0.110591
674.963	0.0952622
684.606	0.0895376
694.248	0.111153
703.89	0.147244
713.533	0.158431
723.175	0.121863
732.817	0.0828321
742.46	0.0718744
752.102	0.090774
761.744	0.0891527
771.387	0.111602
781.029	0.142021
790.671	0.106416
800.314	0.0558298
809.956	0.0389181
819.598	0.0393066
829.241	0.0452209
838.883	0.0557873
848.525	0.0677873
858.168	0.0616319
867.81	0.0523706
877.452	0.0529621
887.095	0.0621663
896.737	0.0767846
906.379	0.0986434
916.022	0.135294
925.664	0.188934
935.306	0.246248
944.949	0.30761
954.591	0.363516
964.233	0.39135
973.876	0.398827
983.518	0.383566
993.16	0.338594
1002.8	0.3015
1012.45	0.291141
1022.09	0.283133
1031.73	0.239884
1041.37	0.203967
1051.01	0.189908
1060.66	0.156021
1070.3	0.115988
1079.94	0.118176
1089.58	0.165826
1099.23	0.180331
1108.87	0.150603
1118.51	0.103599
1128.15	0.0624366
1137.8	0.0372869
1147.44	0.0251037
1157.08	0.0202862
1166.72	0.0183828
1176.37	0.0181062
1186.01	0.0185716
1195.65	0.0197166
1205.29	0.023489
1214.93	0.033792
1224.58	0.0569998
1234.22	0.0894209
1243.86	0.105274
1253.5	0.110957
1263.15	0.12028
1272.79	0.13364
1282.43	0.157279
1292.07	0.177754
1301.71	0.168125
1311.36	0.145539
1321	0.12135
1330.64	0.111178
1340.28	0.118723
1349.93	0.106168
1359.57	0.0829116
1369.21	0.0633913
1378.85	0.057439
1388.5	0.044695
1398.14	0.0332406
1407.78	0.0307866
1417.42	0.026169
1427.07	0.018795
1436.71	0.014221
1446.35	0.0095274
1455.99	0.00808696
1465.63	0.00556193
1475.28	0.00438126
1484.92	0.00321968
1494.56	0.00294262
1504.2	0.00263189
1513.85	0.00160489
1523.49	0.00168083
1533.13	0.00125472
1542.77	0.0015493
1552.42	0.00113637
1562.06	0.00130895
1571.7	0.00149313
1581.34	0.00157941
1590.98	0.00167415
1600.63	0.00189597
1610.27	0.00222354
1619.91	0.00250597
1629.55	0.00288311
1639.2	0.00291771
1648.84	0.00333183
1658.48	0.00303889
1668.12	0.0032394
1677.77	0.00286619
1687.41	0.00298864
1697.05	0.00295367
1706.69	0.00253179
1716.34	0.00275048
1725.98	0.00152287
1735.62	0.00145408
1745.26	0.000570294
1754.9	0.000370897
1764.55	0.000716363
1774.19	0.000756884
1783.83	0.000833418
1793.47	0.00105765
1803.12	0.000879651
1812.76	0.000593105
1822.4	0.00046583
1832.04	0.000680086
1841.69	-1.85979e-05
1851.33	-1.26316e-05
1860.97	-0.00037778
1870.61	0.000113969
1880.26	-0.000266255
1889.9	-0.00075416
1899.54	-0.00101525
1909.18	-0.00151664
1918.82	-0.00094441
1928.47	-0.00203879
1938.11	-0.00252506
1947.75	-0.00297966
1957.39	-0.00363236
1967.04	-0.00389043
1976.68	-0.00254029
1986.32	-0.000494303
1995.96	-0.00112722
2005.61	-0.00380583
2015.25	-0.00047221
2024.89	-0.00185113
2034.53	-0.000803454
2044.17	-0.00203069
2053.82	1.01631e-06
2063.46	-0.000382962
2073.1	0.000310567
2082.74	0.000224187
2092.39	-0.000433894
2102.03	0.00117224
2111.67	-0.000183044
2121.31	-0.000443843
2130.96	-0.000577655
2140.6	0.0004241
2150.24	-0.00102722
2159.88	0.00411252
2169.53	0.00182512
2179.17	-3.05595e-05
2188.81	0.00123419
2198.45	0.000657674
2208.09	0.000378342
2217.74	0.00137361
2227.38	0.00175738
2237.02	0.00327538
2246.66	0.00267301
2256.31	0.00384477
2265.95	0.00387801
2275.59	0.00480583
2285.23	0.00535273
2294.88	0.00490601
2304.52	0.00488348
2314.16	0.00489013
2323.8	0.00598272
2333.45	0.00416534
2343.09	0.00490909
2352.73	0.004359
2362.37	0.00459874
2372.01	0.00385292
2381.66	0.00379318
2391.3	0.00370973
2400.94	0.00332624
2410.58	0.00386578
2420.23	0.00339735
2429.87	0.00406912
2439.51	0.00382883
2449.15	0.00358583
2458.8	0.00341245
2468.44	0.00351373
2478.08	0.0024484
2487.72	0.00238822
2497.36	0.00231434
2507.01	0.00256497
2516.65	0.00253248
2526.29	0.00211048
2535.93	0.00171657
2545.58	0.00224125
2555.22	0.00236405
2564.86	0.00171609
2574.5	0.00218469
2584.14	0.00229989
2593.79	0.00241101
2603.43	0.00289089
2613.07	0.00388839
2622.72	0.00415751
2632.36	0.00423054
2642	0.00457651
2651.64	0.00489788
2661.28	0.00482649
2670.93	0.00396985
2680.57	0.00436788
2690.21	0.00419303
2699.85	0.00420175
2709.5	0.0047576
2719.14	0.0049275
2728.78	0.0054228
2738.42	0.005663
2748.07	0.00611392
2757.71	0.00560593
2767.35	0.00613386
2776.99	0.00648598
2786.63	0.00706067
2796.28	0.00704858
2805.92	0.00747223
2815.56	0.00746309
2825.2	0.00763937
2834.85	0.00813062
2844.49	0.0088296
2854.13	0.00966413
2863.77	0.00958492
2873.41	0.00961127
2883.06	0.00947971
2892.7	0.0095853
2902.34	0.0104676
2911.99	0.0114784
2921.63	0.0124788
2931.27	0.0122699
2940.91	0.0109752
2950.55	0.0111543
2960.2	0.0115494
2969.84	0.010762
2979.48	0.010364
2989.12	0.0105239
2998.77	0.0105492
3008.41	0.0104181
3018.05	0.0113799
3027.69	0.0109682
3037.34	0.0118805
3046.98	0.0115532
3056.62	0.0116364
3066.26	0.0120329
3075.9	0.0118921
3085.55	0.0122999
3095.19	0.0132293
3104.83	0.0133871
3114.47	0.0131728
3124.12	0.0140203
3133.76	0.0138906
3143.4	0.0147684
3153.04	0.0142227
3162.68	0.0154648
3172.33	0.0149204
3181.97	0.0154751
3191.61	0.0156256
3201.26	0.0157602
3210.9	0.0165916
3220.54	0.0168137
3230.18	0.0162046
3239.82	0.0163972
3249.47	0.0172915
3259.11	0.0170503
3268.75	0.0175494
3278.39	0.0174988
3288.04	0.0175078
3297.68	0.0175514
3307.32	0.0182926
3316.96	0.0180601
3326.61	0.0182008
3336.25	0.0180448
3345.89	0.018335
3355.53	0.0187841
3365.17	0.0187769
3374.82	0.0199844
3384.46	0.019212
3394.1	0.0195715
3403.74	0.0194881
3413.39	0.0197356
3423.03	0.0202561
3432.67	0.021317
3442.31	0.0231589
3451.95	0.024599
3461.6	0.0276538
3471.24	0.032248
3480.88	0.0352024
3490.53	0.0381602
3500.17	0.0348403
3509.81	0.0260407
3519.45	0.0201345
3529.09	0.0200853
3538.74	0.0217308
3548.38	0.028313
3558.02	0.0315187
3567.66	0.0286733
3577.31	0.0234937
3586.95	0.0281847
3596.59	0.0283682
3606.23	0.0167388
3615.88	0.0103968
3625.52	0.00879028
3635.16	0.00824875
3644.8	0.00866634
3654.44	0.00763348
3664.09	0.00764926
3673.73	0.00835452
3683.37	0.00685984
3693.01	0.00599341
3702.66	0.00622485
3712.3	0.00688319
3721.94	0.00647599
3731.58	0.00699912
3741.22	0.00769242
3750.87	0.00854505
3760.51	0.00658366
3770.15	0.00690005
3779.8	0.00681343
3789.44	0.00517244
3799.08	0.00717663
3808.72	0.00644393
3818.36	0.00624933
3828.01	0.00737927
3837.65	0.00758043
3847.29	0.00621095
3856.93	0.0071617
3866.58	0.00639386
3876.22	0.00641672
3885.86	0.00742995
3895.5	0.00591201
3905.14	0.00660275
3914.79	0.00651657
3924.43	0.00677636
3934.07	0.00609719
3943.71	0.00672811
3953.36	0.0070634
3963	0.00688198
3972.64	0.00724983
3982.28	0.00614301
3991.93	0.00616965
