Measurement: Infrared, Infrared Data Processed
Mineral: Enstatite
Rruff sample: R040093
Ideal chemistry: MgSiO_3_
Locality: Castle Rock, Pennsylvania, USA
Source: University of Arizona Mineral Museum
Description: Dark green massive
Measured chemistry: (Mg_0.84_Fe_0.15_Al_0.01_)Si_1.00_O_3_
x	intensity
399.193	0
408.835	0.193615
418.477	0.193538
428.12	0.220211
437.762	0.23416
447.404	0.227655
457.047	0.210367
466.689	0.203365
476.331	0.206771
485.974	0.214081
495.616	0.225853
505.258	0.208595
514.901	0.178717
524.543	0.146707
534.185	0.153753
543.828	0.141469
553.47	0.115231
563.112	0.0945845
572.755	0.070764
582.397	0.0550437
592.039	0.0426297
601.682	0.034244
611.324	0.0309206
620.966	0.0344396
630.609	0.0466959
640.251	0.0689878
649.893	0.069627
659.536	0.0532141
669.178	0.0488723
678.82	0.0555194
688.463	0.069974
698.105	0.0497689
707.747	0.0484297
717.39	0.0541922
727.032	0.0605288
736.674	0.0461173
746.317	0.0492032
755.959	0.0508037
765.601	0.0476515
775.244	0.0507254
784.886	0.0589279
794.528	0.0616668
804.171	0.0704559
813.813	0.0868106
823.455	0.110255
833.098	0.14011
842.74	0.176149
852.382	0.204647
862.025	0.217929
871.667	0.224175
881.309	0.22182
890.952	0.221548
900.594	0.219847
910.236	0.232295
919.879	0.259667
929.521	0.25887
939.163	0.263696
948.806	0.262789
958.448	0.24872
968.09	0.2373
977.733	0.218964
987.375	0.196804
997.017	0.197245
1006.66	0.193408
1016.3	0.178816
1025.94	0.171407
1035.59	0.160847
1045.23	0.161187
1054.87	0.162158
1064.51	0.151933
1074.16	0.131758
1083.8	0.116034
1093.44	0.105994
1103.08	0.0887719
1112.72	0.0737106
1122.37	0.061331
1132.01	0.0452079
1141.65	0.031865
1151.3	0.0199591
1160.94	0.0143018
1170.58	0.0120097
1180.22	0.0108511
1189.86	0.0100339
1199.51	0.00943157
1209.15	0.00885275
1218.79	0.00867467
1228.43	0.00848881
1238.08	0.00840778
1247.72	0.00811446
1257.36	0.00827183
1267	0.00845722
1276.64	0.00868312
1286.29	0.00873423
1295.93	0.00908103
1305.57	0.00920519
1315.21	0.00929331
1324.86	0.00951639
1334.5	0.0101665
1344.14	0.0100315
1353.78	0.010918
1363.43	0.0113305
1373.07	0.0119566
1382.71	0.0127771
1392.35	0.0139228
1401.99	0.0152045
1411.64	0.0166787
1421.28	0.0180778
1430.92	0.0193574
1440.57	0.0215265
1450.21	0.0225436
1459.85	0.0230371
1469.49	0.0229792
1479.13	0.022042
1488.78	0.0210984
1498.42	0.0201353
1508.06	0.0189792
1517.7	0.0182891
1527.35	0.0165856
1536.99	0.0160562
1546.63	0.0156891
1556.27	0.0154624
1565.91	0.0149951
1575.56	0.0152884
1585.2	0.0149234
1594.84	0.0148205
1604.48	0.0152275
1614.13	0.0147088
1623.77	0.0150254
1633.41	0.0147815
1643.05	0.0145681
1652.7	0.0141308
1662.34	0.0138334
1671.98	0.0130568
1681.62	0.0126449
1691.27	0.0123383
1700.91	0.0121278
1710.55	0.0116574
1720.19	0.01176
1729.84	0.0119544
1739.48	0.0113198
1749.12	0.0115318
1758.76	0.0117233
1768.4	0.0117668
1778.05	0.0118335
1787.69	0.0120274
1797.33	0.0124467
1806.97	0.0119756
1816.62	0.0112921
1826.26	0.0119753
1835.9	0.0115352
1845.54	0.0115102
1855.18	0.0115131
1864.83	0.0118757
1874.47	0.0103026
1884.11	0.0106943
1893.75	0.0119206
1903.4	0.0109071
1913.04	0.0108733
1922.68	0.0104949
1932.32	0.00986262
1941.97	0.00825174
1951.61	0.00910186
1961.25	0.0060304
1970.89	0.00771833
1980.54	0.00985397
1990.18	0.0101595
1999.82	0.00879236
2009.46	0.00641691
2019.11	0.0075792
2028.75	0.00812224
2038.39	0.00948534
2048.03	0.00854209
2057.67	0.0117224
2067.32	0.0113485
2076.96	0.0131615
2086.6	0.0116975
2096.24	0.0119419
2105.89	0.0137705
2115.53	0.0140332
2125.17	0.0102914
2134.81	0.00909174
2144.45	0.00884796
2154.1	0.00727662
2163.74	0.0118926
2173.38	0.0101724
2183.02	0.0134853
2192.67	0.0137743
2202.31	0.0138716
2211.95	0.0157378
2221.59	0.0142741
2231.24	0.0160541
2240.88	0.0171951
2250.52	0.0166134
2260.16	0.0163353
2269.8	0.0178333
2279.45	0.0206196
2289.09	0.0191523
2298.73	0.0194692
2308.38	0.0191098
2318.02	0.0207111
2327.66	0.0198623
2337.3	0.0187349
2346.94	0.0194323
2356.59	0.0189488
2366.23	0.0185133
2375.87	0.0193199
2385.51	0.0186561
2395.16	0.0195531
2404.8	0.0188219
2414.44	0.0194804
2424.08	0.0192842
2433.72	0.0198696
2443.37	0.0195084
2453.01	0.0215292
2462.65	0.0195914
2472.29	0.0204477
2481.94	0.0215788
2491.58	0.0207254
2501.22	0.0213858
2510.86	0.0197353
2520.51	0.02142
2530.15	0.0213125
2539.79	0.0215969
2549.43	0.0216175
2559.07	0.0203998
2568.72	0.0216163
2578.36	0.0221514
2588	0.0227703
2597.64	0.0220247
2607.29	0.0228777
2616.93	0.0235175
2626.57	0.0230672
2636.21	0.0230933
2645.86	0.0228584
2655.5	0.023305
2665.14	0.0226225
2674.78	0.0225875
2684.43	0.0226742
2694.07	0.0225797
2703.71	0.0229373
2713.35	0.0231967
2722.99	0.0229376
2732.64	0.0228923
2742.28	0.0233034
2751.92	0.0231817
2761.56	0.023964
2771.21	0.0241205
2780.85	0.0236713
2790.49	0.0229089
2800.13	0.0238276
2809.78	0.0242564
2819.42	0.0236921
2829.06	0.0251611
2838.7	0.0238796
2848.34	0.0248675
2857.99	0.0244362
2867.63	0.0244413
2877.27	0.0244311
2886.91	0.0258654
2896.56	0.0244017
2906.2	0.0253848
2915.84	0.0261518
2925.48	0.0246962
2935.13	0.0254903
2944.77	0.0260813
2954.41	0.0238648
2964.05	0.0247752
2973.7	0.0262692
2983.34	0.0265678
2992.98	0.0255193
3002.62	0.0257637
3012.26	0.0261688
3021.91	0.0265505
3031.55	0.0267914
3041.19	0.0283123
3050.83	0.0269844
3060.48	0.0269938
3070.12	0.0274565
3079.76	0.0280983
3089.4	0.0285939
3099.05	0.0283834
3108.69	0.0293485
3118.33	0.0295219
3127.97	0.0287127
3137.61	0.0289228
3147.26	0.028565
3156.9	0.0297445
3166.54	0.0310977
3176.18	0.0304949
3185.83	0.0312588
3195.47	0.0304351
3205.11	0.0312295
3214.75	0.0315342
3224.4	0.0312658
3234.04	0.0314082
3243.68	0.0329743
3253.32	0.030925
3262.97	0.0317496
3272.61	0.03307
3282.25	0.0321165
3291.89	0.0313965
3301.53	0.0308061
3311.18	0.0329758
3320.82	0.0331321
3330.46	0.0332708
3340.1	0.0336621
3349.75	0.0345926
3359.39	0.0342518
3369.03	0.0329118
3378.67	0.0340839
3388.32	0.0342773
3397.96	0.0344756
3407.6	0.032681
3417.24	0.0350708
3426.89	0.0351118
3436.53	0.0339154
3446.17	0.0336632
3455.81	0.0361187
3465.45	0.0340291
3475.1	0.0352367
3484.74	0.0342487
3494.38	0.0345041
3504.02	0.0351481
3513.67	0.0350864
3523.31	0.0333992
3532.95	0.0341132
3542.59	0.0331882
3552.24	0.0343975
3561.88	0.0336977
3571.52	0.0333526
3581.16	0.0364788
3590.8	0.0336901
3600.45	0.0339664
3610.09	0.034538
3619.73	0.0375018
3629.37	0.0332045
3639.02	0.0368288
3648.66	0.0349658
3658.3	0.0362075
3667.94	0.0439824
3677.59	0.0356916
3687.23	0.0354238
3696.87	0.0350391
3706.51	0.032862
3716.16	0.0324429
3725.8	0.0302618
3735.44	0.0300765
3745.08	0.0322457
3754.72	0.0337254
3764.37	0.032446
3774.01	0.0325602
3783.65	0.0319348
3793.29	0.0334447
3802.94	0.0329784
3812.58	0.0319809
3822.22	0.0322143
3831.86	0.0343996
3841.51	0.0319564
3851.15	0.0314114
3860.79	0.0332135
3870.43	0.0337823
3880.07	0.0339547
3889.72	0.0325336
3899.36	0.0324492
3909	0.0361341
3918.64	0.0337633
3928.29	0.0344178
3937.93	0.0333104
3947.57	0.0353728
3957.21	0.034833
3966.86	0.0337138
3976.5	0.0342656
3986.14	0.0366402
3995.78	0.0348353
