Measurement: Infrared, Infrared Data Processed
Mineral: Enstatite
Rruff sample: R040094
Ideal chemistry: MgSiO_3_
Locality: unknown
Source: University of Arizona Mineral Museum
Description: Dark green massive, associated with anthophyllite
Measured chemistry: (Mg_0.84_Fe_0.15_)(Si_0.99_Al_0.01_)O_3_; = Enstatite :  [box](Mg_0.83_Fe_0.14_Na_0.01_Ca_0.01_)_7_(Si_0.99_Al_0.01_)_8_O_22_(OH)_2_ = Anthophyllite
x	intensity
399.193	0
408.835	0.471432
418.477	0.447404
428.12	0.440716
437.762	0.422464
447.404	0.384673
457.047	0.323614
466.689	0.264316
476.331	0.229459
485.974	0.254549
495.616	0.258428
505.258	0.258747
514.901	0.269628
524.543	0.28422
534.185	0.343947
543.828	0.387578
553.47	0.421182
563.112	0.431012
572.755	0.426207
582.397	0.428335
592.039	0.411126
601.682	0.389177
611.324	0.366047
620.966	0.3367
630.609	0.34316
640.251	0.351301
649.893	0.319144
659.536	0.296606
669.178	0.279275
678.82	0.264587
688.463	0.250305
698.105	0.231862
707.747	0.222791
717.39	0.212504
727.032	0.199119
736.674	0.187078
746.317	0.177389
755.959	0.169673
765.601	0.164711
775.244	0.160699
784.886	0.152289
794.528	0.145473
804.171	0.140023
813.813	0.135301
823.455	0.131005
833.098	0.127727
842.74	0.125729
852.382	0.124707
862.025	0.119344
871.667	0.109513
881.309	0.0949259
890.952	0.0870871
900.594	0.0875184
910.236	0.0847571
919.879	0.0984405
929.521	0.11421
939.163	0.123809
948.806	0.123536
958.448	0.113022
968.09	0.108914
977.733	0.101193
987.375	0.0876857
997.017	0.0895115
1006.66	0.0966799
1016.3	0.0959424
1025.94	0.0949899
1035.59	0.0927117
1045.23	0.0977747
1054.87	0.111578
1064.51	0.116815
1074.16	0.109471
1083.8	0.0974675
1093.44	0.0857228
1103.08	0.072778
1112.72	0.0587821
1122.37	0.0502417
1132.01	0.0393603
1141.65	0.0337255
1151.3	0.0285854
1160.94	0.0256523
1170.58	0.0230855
1180.22	0.0207018
1189.86	0.0189403
1199.51	0.0171505
1209.15	0.0149693
1218.79	0.0129008
1228.43	0.0111656
1238.08	0.00968032
1247.72	0.00846231
1257.36	0.00764509
1267	0.00712927
1276.64	0.00708365
1286.29	0.00684804
1295.93	0.0066852
1305.57	0.00626267
1315.21	0.00593161
1324.86	0.00598257
1334.5	0.00605692
1344.14	0.00596599
1353.78	0.00620198
1363.43	0.00620708
1373.07	0.00709588
1382.71	0.00709882
1392.35	0.00739776
1401.99	0.00782946
1411.64	0.00808801
1421.28	0.00842747
1430.92	0.00831208
1440.57	0.00875413
1450.21	0.00895223
1459.85	0.00893837
1469.49	0.00833323
1479.13	0.00765095
1488.78	0.0075625
1498.42	0.00735463
1508.06	0.0072728
1517.7	0.00742298
1527.35	0.00691153
1536.99	0.00716535
1546.63	0.00721946
1556.27	0.00717828
1565.91	0.00686693
1575.56	0.00715676
1585.2	0.00714919
1594.84	0.00741363
1604.48	0.00748403
1614.13	0.00723239
1623.77	0.00799868
1633.41	0.00812661
1643.05	0.00828363
1652.7	0.00769726
1662.34	0.00744774
1671.98	0.0066352
1681.62	0.00602535
1691.27	0.00536799
1700.91	0.00482671
1710.55	0.00444082
1720.19	0.00390272
1729.84	0.00365665
1739.48	0.00266536
1749.12	0.00237455
1758.76	0.00294615
1768.4	0.0032763
1778.05	0.00327056
1787.69	0.00316894
1797.33	0.00318274
1806.97	0.00287217
1816.62	0.00271672
1826.26	0.00330666
1835.9	0.00299188
1845.54	0.00251479
1855.18	0.00283081
1864.83	0.0027484
1874.47	0.00256922
1884.11	0.00181463
1893.75	0.00243954
1903.4	0.00204465
1913.04	0.0018839
1922.68	0.00149429
1932.32	0.000423899
1941.97	5.75464e-05
1951.61	0.0013991
1961.25	-0.00115274
1970.89	0.00110193
1980.54	0.00212267
1990.18	0.00259052
1999.82	0.000376708
2009.46	0.000106126
2019.11	-0.0011336
2028.75	-0.000347255
2038.39	0.00207035
2048.03	0.000331433
2057.67	0.00218898
2067.32	0.0021859
2076.96	0.00303235
2086.6	0.00166706
2096.24	0.00339746
2105.89	0.00352812
2115.53	0.0040285
2125.17	0.00129068
2134.81	-0.000500382
2144.45	-0.000825748
2154.1	-0.00340364
2163.74	0.00253924
2173.38	-7.50909e-05
2183.02	0.00252462
2192.67	0.00249976
2202.31	0.0012637
2211.95	0.00424877
2221.59	0.00362114
2231.24	0.00525161
2240.88	0.00502379
2250.52	0.00527677
2260.16	0.00485373
2269.8	0.00601773
2279.45	0.00910765
2289.09	0.00767007
2298.73	0.00711508
2308.38	0.00647385
2318.02	0.00847986
2327.66	0.0072769
2337.3	0.00634234
2346.94	0.00753407
2356.59	0.00629122
2366.23	0.00631051
2375.87	0.00672654
2385.51	0.00567587
2395.16	0.00616456
2404.8	0.00588547
2414.44	0.00654407
2424.08	0.0064939
2433.72	0.0066974
2443.37	0.00767887
2453.01	0.00827618
2462.65	0.00698042
2472.29	0.00769181
2481.94	0.00781019
2491.58	0.0076662
2501.22	0.00839216
2510.86	0.00668324
2520.51	0.00861416
2530.15	0.00854839
2539.79	0.00802783
2549.43	0.00813852
2559.07	0.00735633
2568.72	0.00846788
2578.36	0.00922887
2588	0.00892059
2597.64	0.00881747
2607.29	0.00841271
2616.93	0.0103522
2626.57	0.00994784
2636.21	0.00948773
2645.86	0.00958891
2655.5	0.0101107
2665.14	0.00928208
2674.78	0.00910975
2684.43	0.0097208
2694.07	0.00895234
2703.71	0.0096009
2713.35	0.0100444
2722.99	0.00987392
2732.64	0.0106542
2742.28	0.00977148
2751.92	0.0101314
2761.56	0.0106763
2771.21	0.0113864
2780.85	0.0108912
2790.49	0.0103035
2800.13	0.0116931
2809.78	0.011498
2819.42	0.0114471
2829.06	0.0124754
2838.7	0.0127819
2848.34	0.0126066
2857.99	0.0125985
2867.63	0.013198
2877.27	0.0137504
2886.91	0.0146036
2896.56	0.0136772
2906.2	0.0150814
2915.84	0.0168047
2925.48	0.0151428
2935.13	0.0148673
2944.77	0.0155487
2954.41	0.0160567
2964.05	0.0156911
2973.7	0.0163801
2983.34	0.0162475
2992.98	0.0152365
3002.62	0.0160589
3012.26	0.0164948
3021.91	0.0171945
3031.55	0.0176784
3041.19	0.0185485
3050.83	0.0177843
3060.48	0.0190318
3070.12	0.0188356
3079.76	0.0213345
3089.4	0.0203476
3099.05	0.0220326
3108.69	0.0213576
3118.33	0.0213509
3127.97	0.0229219
3137.61	0.0223843
3147.26	0.023945
3156.9	0.0229031
3166.54	0.0248297
3176.18	0.0252523
3185.83	0.0261506
3195.47	0.0254504
3205.11	0.0260779
3214.75	0.0278305
3224.4	0.0278443
3234.04	0.0274197
3243.68	0.0298927
3253.32	0.0274585
3262.97	0.0298217
3272.61	0.0314183
3282.25	0.0306423
3291.89	0.0300998
3301.53	0.0305995
3311.18	0.0315349
3320.82	0.0318638
3330.46	0.0328965
3340.1	0.0328402
3349.75	0.0332731
3359.39	0.0337255
3369.03	0.0335164
3378.67	0.0352849
3388.32	0.0339052
3397.96	0.034628
3407.6	0.0358889
3417.24	0.0367788
3426.89	0.0350147
3436.53	0.034598
3446.17	0.0353757
3455.81	0.0359273
3465.45	0.033716
3475.1	0.0337518
3484.74	0.0339843
3494.38	0.0348593
3504.02	0.0332796
3513.67	0.0336541
3523.31	0.0305636
3532.95	0.0318583
3542.59	0.0310853
3552.24	0.0301135
3561.88	0.0264938
3571.52	0.0271645
3581.16	0.0286332
3590.8	0.0263399
3600.45	0.0262416
3610.09	0.0251748
3619.73	0.0257939
3629.37	0.0202017
3639.02	0.0231343
3648.66	0.0227488
3658.3	0.0202358
3667.94	0.0182316
3677.59	0.0170213
3687.23	0.0175987
3696.87	0.0179216
3706.51	0.0170129
3716.16	0.0172022
3725.8	0.017492
3735.44	0.0154118
3745.08	0.0176579
3754.72	0.0171496
3764.37	0.0162392
3774.01	0.0154672
3783.65	0.0166743
3793.29	0.016143
3802.94	0.0144736
3812.58	0.0147209
3822.22	0.0165696
3831.86	0.0159115
3841.51	0.016311
3851.15	0.0160446
3860.79	0.0169148
3870.43	0.0169988
3880.07	0.0169974
3889.72	0.0159121
3899.36	0.0188494
3909	0.0201589
3918.64	0.0176001
3928.29	0.0194402
3937.93	0.0175051
3947.57	0.0177618
3957.21	0.0194149
3966.86	0.0140341
3976.5	0.0174127
3986.14	0.01913
3995.78	0.0163476
