Measurement: Infrared, Infrared Data Processed
Mineral: Epidote
Rruff sample: R040089
Ideal chemistry: Ca_2_Fe^3+^Al_2_(Si_2_O_7_)(SiO_4_)O(OH)
Locality: Grafton County, New Hampshire, USA
Source: University of Arizona Mineral Museum
Description: Dark green coarsely crystalline massive
Measured chemistry: Ca_2.00_(Al_2.36_Fe^3+^_0.64_)[Si_2.00_O_7_][Si_1.00_O_4_]O(OH)
x	intensity
399.193	0
408.835	0.179627
418.477	0.149908
428.12	0.144635
437.762	0.144645
447.404	0.15406
457.047	0.153945
466.689	0.126349
476.331	0.119525
485.974	0.113244
495.616	0.13543
505.258	0.16465
514.901	0.17802
524.543	0.165339
534.185	0.147086
543.828	0.145686
553.47	0.148599
563.112	0.142785
572.755	0.132841
582.397	0.11294
592.039	0.0963423
601.682	0.0821214
611.324	0.0696589
620.966	0.0906136
630.609	0.128996
640.251	0.15269
649.893	0.147889
659.536	0.121388
669.178	0.104456
678.82	0.081576
688.463	0.0623698
698.105	0.0485624
707.747	0.035726
717.39	0.0297259
727.032	0.0370927
736.674	0.0262602
746.317	0.021906
755.959	0.0228436
765.601	0.02626
775.244	0.0309278
784.886	0.0376496
794.528	0.048731
804.171	0.0650463
813.813	0.0817037
823.455	0.109517
833.098	0.143293
842.74	0.149998
852.382	0.151399
862.025	0.168342
871.667	0.180236
881.309	0.215854
890.952	0.202054
900.594	0.176886
910.236	0.160605
919.879	0.154665
929.521	0.179491
939.163	0.208381
948.806	0.209691
958.448	0.177924
968.09	0.135083
977.733	0.0983124
987.375	0.0728671
997.017	0.0539228
1006.66	0.0396635
1016.3	0.0381659
1025.94	0.0546905
1035.59	0.0894612
1045.23	0.0814996
1054.87	0.0620548
1064.51	0.0618812
1074.16	0.0779453
1083.8	0.0865358
1093.44	0.0910774
1103.08	0.0949593
1112.72	0.0910623
1122.37	0.0793577
1132.01	0.0590303
1141.65	0.0360121
1151.3	0.0197105
1160.94	0.0126756
1170.58	0.00924363
1180.22	0.0074386
1189.86	0.00608195
1199.51	0.00511454
1209.15	0.00446295
1218.79	0.00395399
1228.43	0.00363004
1238.08	0.00342604
1247.72	0.00362581
1257.36	0.00345719
1267	0.00353016
1276.64	0.00342663
1286.29	0.00335739
1295.93	0.00369974
1305.57	0.00362624
1315.21	0.00360499
1324.86	0.00373982
1334.5	0.00405723
1344.14	0.00399267
1353.78	0.00463363
1363.43	0.00448187
1373.07	0.00469369
1382.71	0.00486259
1392.35	0.00498235
1401.99	0.00541818
1411.64	0.005409
1421.28	0.00550319
1430.92	0.00549411
1440.57	0.00592337
1450.21	0.00594069
1459.85	0.00586495
1469.49	0.00564587
1479.13	0.00603302
1488.78	0.00604212
1498.42	0.005924
1508.06	0.00635468
1517.7	0.00647837
1527.35	0.00677965
1536.99	0.00707891
1546.63	0.00785055
1556.27	0.00860714
1565.91	0.00872478
1575.56	0.00881218
1585.2	0.00902972
1594.84	0.00911638
1604.48	0.0092086
1614.13	0.00882239
1623.77	0.00913049
1633.41	0.00908152
1643.05	0.00902782
1652.7	0.0091027
1662.34	0.00894602
1671.98	0.00898826
1681.62	0.00877786
1691.27	0.00867858
1700.91	0.00884686
1710.55	0.00859477
1720.19	0.00839773
1729.84	0.00846751
1739.48	0.00792464
1749.12	0.00782538
1758.76	0.00801583
1768.4	0.00818377
1778.05	0.00816836
1787.69	0.00807288
1797.33	0.00826162
1806.97	0.00840027
1816.62	0.00784952
1826.26	0.00831983
1835.9	0.00820461
1845.54	0.00861706
1855.18	0.00842729
1864.83	0.00746202
1874.47	0.00770359
1884.11	0.00740409
1893.75	0.00746895
1903.4	0.00701217
1913.04	0.00786641
1922.68	0.00696261
1932.32	0.00724592
1941.97	0.006589
1951.61	0.00773602
1961.25	0.00716083
1970.89	0.00703542
1980.54	0.0107663
1990.18	0.00989298
1999.82	0.00735086
2009.46	0.00885455
2019.11	0.0100528
2028.75	0.0113616
2038.39	0.0108247
2048.03	0.0118943
2057.67	0.00809814
2067.32	0.00713569
2076.96	0.0121406
2086.6	0.0100198
2096.24	0.0101865
2105.89	0.0121533
2115.53	0.0105409
2125.17	0.00989439
2134.81	0.0086146
2144.45	0.00627946
2154.1	0.00597526
2163.74	0.0119711
2173.38	0.00858095
2183.02	0.00904041
2192.67	0.00994829
2202.31	0.0111753
2211.95	0.00987511
2221.59	0.0119498
2231.24	0.0127611
2240.88	0.0106483
2250.52	0.0130793
2260.16	0.0126951
2269.8	0.0130349
2279.45	0.0151844
2289.09	0.0144589
2298.73	0.0161292
2308.38	0.0159025
2318.02	0.0162653
2327.66	0.0149181
2337.3	0.0147589
2346.94	0.0151922
2356.59	0.0147212
2366.23	0.0144217
2375.87	0.0141297
2385.51	0.0140092
2395.16	0.0143417
2404.8	0.0157783
2414.44	0.0149591
2424.08	0.0153073
2433.72	0.015211
2443.37	0.0156831
2453.01	0.0157157
2462.65	0.016852
2472.29	0.015941
2481.94	0.0155417
2491.58	0.015291
2501.22	0.0160561
2510.86	0.016432
2520.51	0.0159984
2530.15	0.0160092
2539.79	0.0165603
2549.43	0.0170178
2559.07	0.0166515
2568.72	0.0165996
2578.36	0.0166156
2588	0.016157
2597.64	0.017821
2607.29	0.0179
2616.93	0.0182589
2626.57	0.0185905
2636.21	0.0186449
2645.86	0.0178593
2655.5	0.0182081
2665.14	0.0178128
2674.78	0.0179501
2684.43	0.0177892
2694.07	0.0183508
2703.71	0.0178276
2713.35	0.0173481
2722.99	0.0185235
2732.64	0.0182064
2742.28	0.0183745
2751.92	0.0182643
2761.56	0.0178604
2771.21	0.0185589
2780.85	0.0182096
2790.49	0.0184856
2800.13	0.0190455
2809.78	0.018611
2819.42	0.0190704
2829.06	0.0190568
2838.7	0.0194461
2848.34	0.0190926
2857.99	0.0184874
2867.63	0.0193437
2877.27	0.0193965
2886.91	0.0199699
2896.56	0.019581
2906.2	0.0196838
2915.84	0.0205767
2925.48	0.0189209
2935.13	0.018664
2944.77	0.0187699
2954.41	0.0196243
2964.05	0.0199851
2973.7	0.0196473
2983.34	0.0197858
2992.98	0.0219677
3002.62	0.0208893
3012.26	0.0209579
3021.91	0.0202833
3031.55	0.0224303
3041.19	0.0219845
3050.83	0.0229459
3060.48	0.0226058
3070.12	0.0223583
3079.76	0.0231869
3089.4	0.0243079
3099.05	0.0231897
3108.69	0.0244007
3118.33	0.0234746
3127.97	0.0241932
3137.61	0.0262689
3147.26	0.0233288
3156.9	0.024797
3166.54	0.0256807
3176.18	0.0251306
3185.83	0.0271262
3195.47	0.0268355
3205.11	0.0277315
3214.75	0.0276791
3224.4	0.0293676
3234.04	0.0302375
3243.68	0.0290727
3253.32	0.0296175
3262.97	0.0324193
3272.61	0.032625
3282.25	0.0312769
3291.89	0.0333519
3301.53	0.0372897
3311.18	0.0373964
3320.82	0.0425
3330.46	0.0472277
3340.1	0.0529225
3349.75	0.0549873
3359.39	0.0519683
3369.03	0.0496299
3378.67	0.0413214
3388.32	0.0363136
3397.96	0.0324578
3407.6	0.0292591
3417.24	0.0290461
3426.89	0.0277035
3436.53	0.0268233
3446.17	0.0262573
3455.81	0.0252291
3465.45	0.0262093
3475.1	0.0250503
3484.74	0.0264131
3494.38	0.0250189
3504.02	0.024259
3513.67	0.0246682
3523.31	0.02452
3532.95	0.0257964
3542.59	0.0240493
3552.24	0.0225626
3561.88	0.0241187
3571.52	0.0231449
3581.16	0.0233189
3590.8	0.023328
3600.45	0.0237061
3610.09	0.02417
3619.73	0.0237345
3629.37	0.0215115
3639.02	0.0236417
3648.66	0.0240936
3658.3	0.0209543
3667.94	0.0230021
3677.59	0.0214532
3687.23	0.0241894
3696.87	0.0258382
3706.51	0.0226553
3716.16	0.0234652
3725.8	0.0227222
3735.44	0.0237935
3745.08	0.0229458
3754.72	0.0238631
3764.37	0.0272737
3774.01	0.0238998
3783.65	0.0245701
3793.29	0.0264782
3802.94	0.0229184
3812.58	0.0265221
3822.22	0.0245983
3831.86	0.0267351
3841.51	0.0242547
3851.15	0.023945
3860.79	0.0239231
3870.43	0.026565
3880.07	0.022726
3889.72	0.0235169
3899.36	0.026353
3909	0.0245093
3918.64	0.0254888
3928.29	0.024221
3937.93	0.0248004
3947.57	0.0250391
3957.21	0.0275972
3966.86	0.0240612
3976.5	0.0257586
3986.14	0.0257435
3995.78	0.027816
