Measurement: Infrared, Infrared Data Processed
Mineral: Epidote
Rruff sample: R050202
Ideal chemistry: Ca_2_Fe^3+^Al_2_(Si_2_O_7_)(SiO_4_)O(OH)
Locality: Iron Cap mine, Landsman Camp, Graham County, Arizona, USA
Source: Bob Downs
Description: Green colored prismatic single crystal associated with quartz, diopside and tremolite
Measured chemistry: Ca_2.00_Al_2.00_(Fe^3+^_0.68_Al_0.32_)(SiO_4_)(Si_2_O_7_)O(OH)
x	intensity
50.1401	0.0153742
52.0686	0.0141342
53.9971	0.00780855
55.9255	0.00996941
57.854	0.0134074
59.7825	0.016978
61.7109	0.0169984
63.6394	0.015295
65.5679	0.0136654
67.4963	0.0117318
69.4248	0.0138107
71.3533	0.0155681
73.2817	0.0175421
75.2102	0.019957
77.1387	0.0230394
79.0671	0.0226993
80.9956	0.0209024
82.9241	0.0197474
84.8525	0.0190758
86.781	0.0189588
88.7095	0.0201992
90.6379	0.021399
92.5664	0.0223223
94.4948	0.0238644
96.4233	0.0249583
98.3518	0.0261843
100.28	0.0272934
102.209	0.0263426
104.137	0.0258838
106.066	0.0272181
107.994	0.0281659
109.923	0.0278749
111.851	0.0271044
113.779	0.0272904
115.708	0.0285083
117.636	0.0291885
119.565	0.0293273
121.493	0.028356
123.422	0.0281631
125.35	0.0281941
127.279	0.0278299
129.207	0.0278191
131.136	0.0282803
133.064	0.0277217
134.993	0.0278755
136.921	0.0287047
138.85	0.0297569
140.778	0.0299917
142.707	0.0287807
144.635	0.0273222
146.563	0.0269734
148.492	0.0270341
150.42	0.0264604
152.349	0.0260437
154.277	0.0254624
156.206	0.0252461
158.134	0.0257714
160.063	0.0258527
161.991	0.0257495
163.92	0.0263249
165.848	0.0271994
167.777	0.0275713
169.705	0.0275867
171.633	0.0271783
173.562	0.0274465
175.49	0.0281704
177.419	0.0297276
179.347	0.0316531
181.276	0.0330776
183.204	0.034142
185.133	0.0344791
187.061	0.0340977
188.99	0.0343173
190.918	0.0348892
192.847	0.0354212
194.775	0.0359498
196.704	0.0368747
198.632	0.0378119
200.56	0.0389754
202.489	0.0403371
204.417	0.0407923
206.346	0.0406664
208.274	0.0405102
210.203	0.0397889
212.131	0.0393437
214.06	0.0397161
215.988	0.0404759
217.917	0.0414922
219.845	0.0426798
221.774	0.0435779
223.702	0.0440459
225.631	0.0439995
227.559	0.0440777
229.488	0.0438078
231.416	0.043158
233.344	0.0421404
235.273	0.0413364
237.201	0.0412652
239.13	0.0420607
241.058	0.0433458
242.987	0.0446769
244.915	0.0457025
246.844	0.0468502
248.772	0.0483476
250.701	0.0494132
252.629	0.049772
254.558	0.0497148
256.486	0.0497171
258.414	0.049755
260.343	0.049349
262.271	0.049521
264.2	0.0497686
266.128	0.0503201
268.057	0.0513101
269.985	0.0517754
271.914	0.0514369
273.842	0.0506675
275.771	0.0505788
277.699	0.0513868
279.628	0.0523677
281.556	0.0531936
283.485	0.0539866
285.413	0.0547132
287.341	0.0550437
289.27	0.0550548
291.198	0.0546746
293.127	0.0545655
295.055	0.0547315
296.984	0.0543527
298.912	0.0534943
300.841	0.0527454
302.769	0.0523677
304.698	0.0525105
306.626	0.0530648
308.555	0.0540829
310.483	0.0549672
312.411	0.0551182
314.34	0.0545038
316.269	0.0539483
318.197	0.0538797
320.125	0.0545449
322.054	0.0553208
323.982	0.0563931
325.911	0.0575831
327.839	0.0586078
329.768	0.0594692
331.696	0.0604531
333.625	0.0619495
335.553	0.0635246
337.482	0.0643476
339.41	0.0645686
341.339	0.065053
343.267	0.0653303
345.195	0.0655268
347.124	0.0662033
349.052	0.0670797
350.981	0.0676194
352.909	0.0674286
354.838	0.06702
356.766	0.0665047
358.695	0.0659886
360.623	0.0655623
362.552	0.0652783
364.48	0.065323
366.409	0.0660691
368.337	0.0671033
370.265	0.0683985
372.194	0.069534
374.122	0.0705403
376.051	0.0715893
377.979	0.072189
379.908	0.0719951
381.836	0.0718069
383.765	0.0717192
385.693	0.0716914
387.622	0.0720579
389.55	0.0729374
391.479	0.0739726
393.407	0.0749958
395.336	0.0753336
397.264	0.0744941
399.192	0.0731639
401.121	0.0716606
403.049	0.0700504
404.978	0.0691222
406.906	0.0685468
408.835	0.0678072
410.763	0.0673253
412.692	0.0665118
414.62	0.0653948
416.549	0.0649214
418.477	0.0648902
420.406	0.0650373
422.334	0.065057
424.262	0.0649235
426.191	0.0651489
428.12	0.065593
430.048	0.0661606
431.976	0.0669193
433.905	0.0675833
435.833	0.068163
437.762	0.0686557
439.69	0.069737
441.619	0.0709302
443.547	0.0721554
445.476	0.0734528
447.404	0.0752287
449.333	0.0771121
451.261	0.0784679
453.19	0.0791018
455.118	0.0792278
457.046	0.0787228
458.975	0.077737
460.903	0.0761913
462.832	0.0747881
464.76	0.0740243
466.689	0.0731125
468.617	0.0721883
470.546	0.0715889
472.474	0.0709631
474.403	0.0703355
476.331	0.0692656
478.26	0.0684179
480.188	0.0683397
482.116	0.0685103
484.045	0.0687762
485.974	0.0687362
487.902	0.0684803
489.83	0.0691153
491.759	0.0706016
493.687	0.0720741
495.616	0.0734163
497.544	0.0751529
499.473	0.0767074
501.401	0.0779797
503.33	0.0790706
505.258	0.0803904
507.187	0.0815943
509.115	0.082597
511.043	0.0830036
512.972	0.0828004
514.9	0.0830267
516.829	0.0834745
518.757	0.0830897
520.686	0.0823852
522.614	0.0817841
524.543	0.0810128
526.471	0.0796751
528.4	0.0783157
530.328	0.0771505
532.257	0.0760048
534.185	0.0752632
536.114	0.0749712
538.042	0.0743315
539.971	0.0737456
541.899	0.0732184
543.827	0.0726549
545.756	0.0723807
547.684	0.0724178
549.613	0.0726244
551.541	0.0727806
553.47	0.0727004
555.398	0.0731263
557.327	0.0734041
559.255	0.0731019
561.184	0.0727126
563.112	0.0724872
565.041	0.0724066
566.969	0.0719822
568.898	0.0710913
570.826	0.0703063
572.755	0.0697506
574.683	0.068975
576.611	0.0675178
578.54	0.0664924
580.468	0.0661385
582.397	0.0657466
584.325	0.0650497
586.254	0.0644455
588.182	0.0633859
590.111	0.0621755
592.039	0.0614206
593.968	0.0606545
595.896	0.059844
597.824	0.0593755
599.753	0.0584614
601.682	0.057368
603.61	0.0563093
605.538	0.0554175
607.467	0.0553006
609.395	0.0558934
611.324	0.0568558
613.252	0.0578483
615.181	0.0595727
617.109	0.0626442
619.038	0.0655597
620.966	0.0683697
622.894	0.0710201
624.823	0.0737906
626.751	0.077105
628.68	0.0805469
630.608	0.0830876
632.537	0.0847127
634.465	0.0857637
636.394	0.0868805
638.322	0.0882071
640.251	0.0892672
642.179	0.0898387
644.108	0.0904064
646.036	0.0902922
647.965	0.0893717
649.893	0.0880948
651.822	0.086562
653.75	0.0850314
655.678	0.0834353
657.607	0.081864
659.535	0.0801366
661.464	0.0787539
663.392	0.0778074
665.321	0.0769166
667.249	0.0755003
669.178	0.074016
671.106	0.0731804
673.035	0.0720009
674.963	0.0702571
676.892	0.06897
678.82	0.0681165
680.749	0.0667592
682.677	0.0653604
684.606	0.0641946
686.534	0.0624992
688.462	0.0607137
690.391	0.0600798
692.319	0.0597251
694.248	0.0586488
696.176	0.0573856
698.105	0.0565323
700.033	0.0546945
