Measurement: Infrared, Infrared Data Processed
Mineral: Ferrimolybdite
Rruff sample: R050542
Ideal chemistry: Fe^3+^_2_(Mo^6+^O_4_)_3_7H_2_O
Locality: Alicante mine, Colorado, USA
Source: University of Arizona Mineral Museum
Description: Mat of parallel fibrous yellow-green crystals
Measured chemistry: Fe^3+^_2.00_(Mo_1.00_O_4_)_3_Â·11H_2_O ; H2O estimated by difference
x	intensity
399.193	0.4727
408.835	0.457653
418.477	0.445611
428.12	0.405687
437.762	0.37563
447.404	0.369047
457.047	0.36396
466.689	0.371876
476.331	0.370426
485.974	0.333377
495.616	0.373148
505.258	0.412311
514.901	0.413679
524.543	0.413589
534.185	0.407961
543.828	0.395911
553.47	0.388283
563.112	0.364468
572.755	0.333245
582.397	0.318449
592.039	0.288235
601.682	0.262278
611.324	0.253813
620.966	0.267193
630.609	0.299099
640.251	0.286475
649.893	0.28404
659.536	0.298737
669.178	0.314287
678.82	0.329244
688.463	0.344105
698.105	0.362248
707.747	0.378931
717.39	0.388113
727.032	0.391701
736.674	0.381454
746.317	0.364653
755.959	0.345579
765.601	0.323826
775.244	0.297805
784.886	0.27817
794.528	0.271826
804.171	0.276693
813.813	0.284855
823.455	0.277966
833.098	0.264149
842.74	0.243733
852.382	0.215985
862.025	0.184581
871.667	0.173469
881.309	0.177404
890.952	0.186141
900.594	0.184629
910.236	0.180418
919.879	0.168333
929.521	0.143901
939.163	0.122549
948.806	0.10845
958.448	0.0904541
968.09	0.0616823
977.733	0.045341
987.375	0.0493604
997.017	0.0671638
1006.66	0.0958821
1016.3	0.0979654
1025.94	0.0717438
1035.59	0.0510246
1045.23	0.0375489
1054.87	0.0340464
1064.51	0.0367314
1074.16	0.0517638
1083.8	0.0827413
1093.44	0.0832547
1103.08	0.0618879
1112.72	0.043958
1122.37	0.0350556
1132.01	0.033655
1141.65	0.0372143
1151.3	0.0463265
1160.94	0.0524074
1170.58	0.0433539
1180.22	0.054288
1189.86	0.0649818
1199.51	0.0597009
1209.15	0.0550213
1218.79	0.0575085
1228.43	0.0465324
1238.08	0.0351654
1247.72	0.0284586
1257.36	0.0219174
1267	0.0161035
1276.64	0.0141148
1286.29	0.0143589
1295.93	0.0148468
1305.57	0.0140105
1315.21	0.0140872
1324.86	0.0141982
1334.5	0.0144295
1344.14	0.0152254
1353.78	0.0159862
1363.43	0.0194665
1373.07	0.0188416
1382.71	0.0230143
1392.35	0.0305657
1401.99	0.0422643
1411.64	0.049704
1421.28	0.0495438
1430.92	0.0449217
1440.57	0.036099
1450.21	0.0289193
1459.85	0.02328
1469.49	0.0201257
1479.13	0.0204836
1488.78	0.0217849
1498.42	0.0280673
1508.06	0.0282973
1517.7	0.0219869
1527.35	0.0219936
1536.99	0.0227541
1546.63	0.0240996
1556.27	0.0256827
1565.91	0.0274953
1575.56	0.0292174
1585.2	0.0322364
1594.84	0.0370014
1604.48	0.0414948
1614.13	0.0435567
1623.77	0.0423835
1633.41	0.0394993
1643.05	0.0360599
1652.7	0.031546
1662.34	0.0279123
1671.98	0.0248668
1681.62	0.0212611
1691.27	0.0184234
1700.91	0.0158132
1710.55	0.0130928
1720.19	0.0133487
1729.84	0.0130059
1739.48	0.0106071
1749.12	0.013847
1758.76	0.0214929
1768.4	0.0277527
1778.05	0.0255513
1787.69	0.0206911
1797.33	0.0161477
1806.97	0.0152836
1816.62	0.0147904
1826.26	0.0151124
1835.9	0.0148138
1845.54	0.0148893
1855.18	0.0152876
1864.83	0.0149813
1874.47	0.0157493
1884.11	0.0155077
1893.75	0.0154666
1903.4	0.0158967
1913.04	0.0159526
1922.68	0.0158306
1932.32	0.0155769
1941.97	0.0161282
1951.61	0.0169766
1961.25	0.0171224
1970.89	0.0177061
1980.54	0.0197759
1990.18	0.0175763
1999.82	0.0165084
2009.46	0.0166568
2019.11	0.0162658
2028.75	0.0173973
2038.39	0.0190547
2048.03	0.0194772
2057.67	0.0188179
2067.32	0.0179799
2076.96	0.0191281
2086.6	0.0183849
2096.24	0.017723
2105.89	0.0189377
2115.53	0.0177608
2125.17	0.0177851
2134.81	0.0165668
2144.45	0.0190312
2154.1	0.0177234
2163.74	0.018498
2173.38	0.0175378
2183.02	0.0183635
2192.67	0.0174435
2202.31	0.0182855
2211.95	0.0174769
2221.59	0.0175581
2231.24	0.0191735
2240.88	0.0196908
2250.52	0.0200931
2260.16	0.0197996
2269.8	0.0203231
2279.45	0.02085
2289.09	0.0207215
2298.73	0.0204971
2308.38	0.0206765
2318.02	0.0208302
2327.66	0.0208785
2337.3	0.0208815
2346.94	0.0210588
2356.59	0.0205375
2366.23	0.0205765
2375.87	0.0212974
2385.51	0.0212419
2395.16	0.0208885
2404.8	0.0213634
2414.44	0.021041
2424.08	0.0212019
2433.72	0.0216204
2443.37	0.0212735
2453.01	0.0227284
2462.65	0.0225325
2472.29	0.0224883
2481.94	0.0231591
2491.58	0.0237373
2501.22	0.0230068
2510.86	0.0228911
2520.51	0.0235736
2530.15	0.0243399
2539.79	0.0243398
2549.43	0.0245055
2559.07	0.0254406
2568.72	0.0258285
2578.36	0.0256018
2588	0.0259703
2597.64	0.0270037
2607.29	0.0271095
2616.93	0.027029
2626.57	0.0281698
2636.21	0.0288206
2645.86	0.0288382
2655.5	0.0296065
2665.14	0.0299761
2674.78	0.030054
2684.43	0.0309366
2694.07	0.0313656
2703.71	0.0319565
2713.35	0.0333503
2722.99	0.0344802
2732.64	0.0344529
2742.28	0.0341374
2751.92	0.0358166
2761.56	0.0366845
2771.21	0.0370369
2780.85	0.0385641
2790.49	0.0383084
2800.13	0.0393822
2809.78	0.040646
2819.42	0.0408251
2829.06	0.0412281
2838.7	0.0421391
2848.34	0.0426916
2857.99	0.0440408
2867.63	0.0440373
2877.27	0.0452263
2886.91	0.0456081
2896.56	0.0468055
2906.2	0.0471227
2915.84	0.0489607
2925.48	0.0505056
2935.13	0.0530084
2944.77	0.0519964
2954.41	0.0519223
2964.05	0.0558873
2973.7	0.055605
2983.34	0.0565037
2992.98	0.057141
3002.62	0.0583928
3012.26	0.0579039
3021.91	0.0596887
3031.55	0.0585396
3041.19	0.0599041
3050.83	0.0601844
3060.48	0.0605032
3070.12	0.059287
3079.76	0.0607709
3089.4	0.0624049
3099.05	0.0618602
3108.69	0.0612372
3118.33	0.0618743
3127.97	0.0642168
3137.61	0.0640253
3147.26	0.0650424
3156.9	0.065213
3166.54	0.0646282
3176.18	0.0649577
3185.83	0.0650424
3195.47	0.0652366
3205.11	0.0650698
3214.75	0.0655208
3224.4	0.0647831
3234.04	0.0648843
3243.68	0.0644482
3253.32	0.0646891
3262.97	0.0640011
3272.61	0.0630367
3282.25	0.0627214
3291.89	0.062995
3301.53	0.0630694
3311.18	0.0649239
3320.82	0.0641427
3330.46	0.065634
3340.1	0.0677436
3349.75	0.0687158
3359.39	0.0699707
3369.03	0.0700954
3378.67	0.0687394
3388.32	0.0659756
3397.96	0.0630884
3407.6	0.0598477
3417.24	0.0561358
3426.89	0.052569
3436.53	0.0488747
3446.17	0.0453973
3455.81	0.042365
3465.45	0.0398705
3475.1	0.0377646
3484.74	0.0355806
3494.38	0.0330753
3504.02	0.0323009
3513.67	0.0310506
3523.31	0.0283965
3532.95	0.0273887
3542.59	0.0251053
3552.24	0.0235579
3561.88	0.0211269
3571.52	0.0211764
3581.16	0.0183823
3590.8	0.0162399
3600.45	0.0151954
3610.09	0.0149498
3619.73	0.0142178
3629.37	0.0134178
3639.02	0.012567
3648.66	0.0120561
3658.3	0.0108679
3667.94	0.0119775
3677.59	0.0132345
3687.23	0.0122101
3696.87	0.0123305
3706.51	0.0131185
3716.16	0.0128235
3725.8	0.0122433
3735.44	0.0138894
3745.08	0.0126712
3754.72	0.0141193
3764.37	0.0136048
3774.01	0.013056
3783.65	0.0135854
3793.29	0.014353
3802.94	0.0127847
3812.58	0.0142009
3822.22	0.0139303
3831.86	0.0146762
3841.51	0.0148772
3851.15	0.0147427
3860.79	0.0146662
3870.43	0.0154885
3880.07	0.0151302
3889.72	0.0153587
3899.36	0.0147586
3909	0.0157978
3918.64	0.0153538
3928.29	0.0161291
3937.93	0.0156709
3947.57	0.0157312
3957.21	0.0152158
3966.86	0.0151156
3976.5	0.0146408
3986.14	0.016131
3995.78	0.016691
