Measurement: Infrared, Infrared Data Processed
Mineral: Fluorapatite
Rruff sample: R050122
Ideal chemistry: Ca_5_(PO_4_)_3_F
Locality: Cruziero mine, San Jose, Minas Gerais, Brazil
Source: Carlos and Paulo Vasconcelos
Description: Green fragment
Measured chemistry: (Ca_4.99_Mn_0.01_)_Î£=5_(P_1.00_O_4_)_3_F_1.00_; trace amounts of Fe
x	intensity
399.193	0.0204198
408.835	0.0200022
418.477	0.0157452
428.12	0.0155068
437.762	0.0148962
447.404	0.0157247
457.047	0.0182233
466.689	0.0265153
476.331	0.0286646
485.974	0.0207098
495.616	0.0212391
505.258	0.0240671
514.901	0.0315629
524.543	0.0461681
534.185	0.0737271
543.828	0.129372
553.47	0.234427
563.112	0.329377
572.755	0.291762
582.397	0.140757
592.039	0.158763
601.682	0.218644
611.324	0.0773658
620.966	0.023977
630.609	0.0158488
640.251	0.0162554
649.893	0.0192515
659.536	0.019593
669.178	0.0240687
678.82	0.0270312
688.463	0.0207895
698.105	0.0197226
707.747	0.0238809
717.39	0.0312108
727.032	0.0360615
736.674	0.0419256
746.317	0.0383662
755.959	0.0251899
765.601	0.0193066
775.244	0.018381
784.886	0.0194202
794.528	0.0207415
804.171	0.0221788
813.813	0.0242407
823.455	0.0266802
833.098	0.0286019
842.74	0.0319518
852.382	0.0353231
862.025	0.040763
871.667	0.0476679
881.309	0.05284
890.952	0.0594732
900.594	0.0682973
910.236	0.0802368
919.879	0.0971098
929.521	0.120526
939.163	0.153134
948.806	0.195581
958.448	0.26566
968.09	0.232041
977.733	0.305117
987.375	0.38281
997.017	0.461159
1006.66	0.534817
1016.3	0.599308
1025.94	0.616544
1035.59	0.528624
1045.23	0.40603
1054.87	0.304369
1064.51	0.230187
1074.16	0.164764
1083.8	0.142821
1093.44	0.179209
1103.08	0.101936
1112.72	0.0592949
1122.37	0.0299266
1132.01	0.0175975
1141.65	0.0137036
1151.3	0.0126167
1160.94	0.0111547
1170.58	0.00998646
1180.22	0.0084854
1189.86	0.00714241
1199.51	0.00638053
1209.15	0.00581845
1218.79	0.00520317
1228.43	0.00498355
1238.08	0.00476447
1247.72	0.0046452
1257.36	0.00449926
1267	0.00437658
1276.64	0.0040918
1286.29	0.00401918
1295.93	0.00359028
1305.57	0.00335039
1315.21	0.00339124
1324.86	0.00340098
1334.5	0.00342079
1344.14	0.00354964
1353.78	0.00352969
1363.43	0.0041429
1373.07	0.00463022
1382.71	0.00482058
1392.35	0.0052266
1401.99	0.00612398
1411.64	0.00701683
1421.28	0.00760022
1430.92	0.00829833
1440.57	0.00868767
1450.21	0.00963438
1459.85	0.00994989
1469.49	0.00891804
1479.13	0.00785756
1488.78	0.00726049
1498.42	0.00708289
1508.06	0.00638674
1517.7	0.00609603
1527.35	0.00625178
1536.99	0.00625537
1546.63	0.00670676
1556.27	0.00730803
1565.91	0.00727442
1575.56	0.00764473
1585.2	0.00713616
1594.84	0.00733209
1604.48	0.00723225
1614.13	0.00718585
1623.77	0.00707996
1633.41	0.0071179
1643.05	0.0068725
1652.7	0.00704551
1662.34	0.00680464
1671.98	0.00679583
1681.62	0.00690733
1691.27	0.00705501
1700.91	0.00794075
1710.55	0.00787705
1720.19	0.00981274
1729.84	0.0131028
1739.48	0.0113132
1749.12	0.00709254
1758.76	0.00619792
1768.4	0.0060524
1778.05	0.00552265
1787.69	0.00609634
1797.33	0.00616582
1806.97	0.00642019
1816.62	0.00566524
1826.26	0.00593127
1835.9	0.00581825
1845.54	0.00635166
1855.18	0.00572997
1864.83	0.0058855
1874.47	0.00518782
1884.11	0.00567474
1893.75	0.00532688
1903.4	0.00517085
1913.04	0.00492321
1922.68	0.00473779
1932.32	0.00472316
1941.97	0.0047648
1951.61	0.00427755
1961.25	0.00550282
1970.89	0.0028523
1980.54	0.00710323
1990.18	0.00773182
1999.82	0.00712809
2009.46	0.00748518
2019.11	0.00444189
2028.75	0.00518311
2038.39	0.00427975
2048.03	0.00663231
2057.67	0.00598292
2067.32	0.00642256
2076.96	0.00748472
2086.6	0.00725127
2096.24	0.00685023
2105.89	0.00789074
2115.53	0.00762904
2125.17	0.00805648
2134.81	0.00771251
2144.45	0.00797853
2154.1	0.00966536
2163.74	0.0125755
2173.38	0.0101572
2183.02	0.00860096
2192.67	0.0101045
2202.31	0.0094993
2211.95	0.00934617
2221.59	0.0117514
2231.24	0.0113507
2240.88	0.0120238
2250.52	0.0119345
2260.16	0.0114166
2269.8	0.0123696
2279.45	0.0116378
2289.09	0.0124349
2298.73	0.01152
2308.38	0.0114223
2318.02	0.0121985
2327.66	0.0118652
2337.3	0.0118338
2346.94	0.0111584
2356.59	0.0120717
2366.23	0.0118452
2375.87	0.0111712
2385.51	0.0112675
2395.16	0.0119483
2404.8	0.0109277
2414.44	0.0115698
2424.08	0.012009
2433.72	0.0120429
2443.37	0.0128563
2453.01	0.0122323
2462.65	0.012603
2472.29	0.0124356
2481.94	0.012273
2491.58	0.0130799
2501.22	0.0122967
2510.86	0.0127471
2520.51	0.0123996
2530.15	0.0129638
2539.79	0.0125998
2549.43	0.0137426
2559.07	0.0128537
2568.72	0.013278
2578.36	0.0138904
2588	0.0142255
2597.64	0.0140766
2607.29	0.0139054
2616.93	0.0144098
2626.57	0.0148282
2636.21	0.013996
2645.86	0.0152053
2655.5	0.0148273
2665.14	0.01398
2674.78	0.0144263
2684.43	0.0138628
2694.07	0.0140433
2703.71	0.01435
2713.35	0.0143136
2722.99	0.0150319
2732.64	0.0144551
2742.28	0.0145682
2751.92	0.0147181
2761.56	0.0150131
2771.21	0.0152742
2780.85	0.015067
2790.49	0.0151718
2800.13	0.0156663
2809.78	0.0149861
2819.42	0.0156949
2829.06	0.0155392
2838.7	0.0169504
2848.34	0.0179492
2857.99	0.0184521
2867.63	0.0185771
2877.27	0.0182868
2886.91	0.0181514
2896.56	0.0187083
2906.2	0.0201972
2915.84	0.0206062
2925.48	0.0210054
2935.13	0.0206572
2944.77	0.0202
2954.41	0.0220412
2964.05	0.0209021
2973.7	0.0185057
2983.34	0.0165782
2992.98	0.0172242
3002.62	0.0159782
3012.26	0.0156865
3021.91	0.0158678
3031.55	0.0161399
3041.19	0.0154026
3050.83	0.0160424
3060.48	0.0164548
3070.12	0.0163305
3079.76	0.0157059
3089.4	0.0170037
3099.05	0.0155343
3108.69	0.017603
3118.33	0.0172821
3127.97	0.0158865
3137.61	0.0160705
3147.26	0.0172313
3156.9	0.0171936
3166.54	0.0173763
3176.18	0.0170038
3185.83	0.0171329
3195.47	0.0168618
3205.11	0.0170782
3214.75	0.0165456
3224.4	0.0189401
3234.04	0.016558
3243.68	0.0170301
3253.32	0.0176671
3262.97	0.0170707
3272.61	0.0180112
3282.25	0.0184797
3291.89	0.0178584
3301.53	0.0177658
3311.18	0.0168003
3320.82	0.0176221
3330.46	0.016754
3340.1	0.0166653
3349.75	0.0179251
3359.39	0.0177568
3369.03	0.0187079
3378.67	0.0172597
3388.32	0.0181394
3397.96	0.0173511
3407.6	0.0172677
3417.24	0.0188081
3426.89	0.0174941
3436.53	0.0182628
3446.17	0.0178009
3455.81	0.0175557
3465.45	0.0184375
3475.1	0.0179186
3484.74	0.0171329
3494.38	0.0172115
3504.02	0.0173242
3513.67	0.0185186
3523.31	0.0209349
3532.95	0.0253757
3542.59	0.0246983
3552.24	0.0216111
3561.88	0.0184276
3571.52	0.0177799
3581.16	0.0159155
3590.8	0.0154595
3600.45	0.0145346
3610.09	0.0159054
3619.73	0.0150564
3629.37	0.0155107
3639.02	0.0143444
3648.66	0.0166512
3658.3	0.0148589
3667.94	0.0157694
3677.59	0.0170568
3687.23	0.0155752
3696.87	0.0144331
3706.51	0.0154655
3716.16	0.0157514
3725.8	0.0159187
3735.44	0.0166902
3745.08	0.0161596
3754.72	0.0151964
3764.37	0.0164894
3774.01	0.0167951
3783.65	0.016292
3793.29	0.0164145
3802.94	0.0161827
3812.58	0.0163919
3822.22	0.0164993
3831.86	0.015927
3841.51	0.0158422
3851.15	0.0155934
3860.79	0.0155804
3870.43	0.01498
3880.07	0.0172684
3889.72	0.0162425
3899.36	0.0164875
3909	0.0160925
3918.64	0.0151736
3928.29	0.0152115
3937.93	0.0159302
3947.57	0.0164578
3957.21	0.0162649
3966.86	0.0169224
3976.5	0.0156035
3986.14	0.0153239
3995.78	0.015893
