Measurement: Infrared, Infrared Data Processed
Mineral: Fluoro-richterite
Rruff sample: R040019
Ideal chemistry: Na(NaCa)Mg_5_Si_8_O_22_F_2_
Locality: Wilberforce, Ontario, Canada
Source: University of Arizona Mineral Museum
Description: Brown prismatic crystals
Measured chemistry: (Na_0.59_K_0.27_[box]_0.14_)_Σ=1_(Ca_1.30_Na_0.70_)_Σ=2_(Mg_4.67_Fe_0.17_Fe^3+^_0.10_Ti_0.03_Mn_0.02_Al_0.01_)_Σ=5_(Si_7.67_Al_0.33_)_Σ=8_(F_1.12_(OH)_0.88_)_Σ=2_; OH estimated by charge balance
x	intensity
399.193	0
408.835	0.323263
418.477	0.307432
428.12	0.338004
437.762	0.358825
447.404	0.325125
457.047	0.32451
466.689	0.29563
476.331	0.256539
485.974	0.241639
495.616	0.233856
505.258	0.223065
514.901	0.189017
524.543	0.158375
534.185	0.133183
543.828	0.107317
553.47	0.0737275
563.112	0.0496727
572.755	0.0360561
582.397	0.0287599
592.039	0.0257144
601.682	0.0267257
611.324	0.0312026
620.966	0.0351819
630.609	0.0381055
640.251	0.044446
649.893	0.0602825
659.536	0.0866616
669.178	0.0890647
678.82	0.0578733
688.463	0.0497074
698.105	0.0491423
707.747	0.0521923
717.39	0.0554994
727.032	0.0576669
736.674	0.0762729
746.317	0.0855859
755.959	0.062383
765.601	0.0431458
775.244	0.0374876
784.886	0.0395829
794.528	0.0430142
804.171	0.0473365
813.813	0.0506259
823.455	0.0550016
833.098	0.0659714
842.74	0.0862553
852.382	0.11157
862.025	0.134141
871.667	0.167682
881.309	0.215409
890.952	0.281859
900.594	0.342903
910.236	0.395397
919.879	0.394269
929.521	0.380308
939.163	0.39936
948.806	0.434169
958.448	0.450465
968.09	0.426577
977.733	0.384002
987.375	0.329199
997.017	0.270372
1006.66	0.220301
1016.3	0.185272
1025.94	0.168231
1035.59	0.170874
1045.23	0.180084
1054.87	0.190117
1064.51	0.182373
1074.16	0.161426
1083.8	0.138849
1093.44	0.110698
1103.08	0.0863083
1112.72	0.0702426
1122.37	0.0607778
1132.01	0.0739423
1141.65	0.0743461
1151.3	0.0408878
1160.94	0.021541
1170.58	0.0147014
1180.22	0.0116876
1189.86	0.00988619
1199.51	0.00863973
1209.15	0.00760032
1218.79	0.00671148
1228.43	0.00606704
1238.08	0.00570319
1247.72	0.00552515
1257.36	0.00515735
1267	0.00507258
1276.64	0.00494851
1286.29	0.00495079
1295.93	0.0049056
1305.57	0.00507222
1315.21	0.00524775
1324.86	0.00562515
1334.5	0.00576892
1344.14	0.00614199
1353.78	0.00713093
1363.43	0.00842075
1373.07	0.0100538
1382.71	0.0119428
1392.35	0.0147775
1401.99	0.0174593
1411.64	0.0202893
1421.28	0.0225574
1430.92	0.0233526
1440.57	0.0239957
1450.21	0.0240277
1459.85	0.0236018
1469.49	0.023222
1479.13	0.0226764
1488.78	0.0218359
1498.42	0.0207913
1508.06	0.0198934
1517.7	0.0185177
1527.35	0.0171648
1536.99	0.0156906
1546.63	0.0145155
1556.27	0.0132861
1565.91	0.0122241
1575.56	0.0112817
1585.2	0.0110812
1594.84	0.0107966
1604.48	0.0108361
1614.13	0.0108435
1623.77	0.0106341
1633.41	0.010867
1643.05	0.0102705
1652.7	0.010089
1662.34	0.00942132
1671.98	0.00864847
1681.62	0.00806965
1691.27	0.0075669
1700.91	0.0068785
1710.55	0.00591079
1720.19	0.00567282
1729.84	0.00539352
1739.48	0.00426059
1749.12	0.00438244
1758.76	0.00453817
1768.4	0.00465518
1778.05	0.00471438
1787.69	0.00426535
1797.33	0.00415677
1806.97	0.00419937
1816.62	0.00333697
1826.26	0.00346468
1835.9	0.00351104
1845.54	0.00335653
1855.18	0.002099
1864.83	0.00232987
1874.47	0.00235653
1884.11	0.00194415
1893.75	0.00173266
1903.4	0.000704003
1913.04	0.00033971
1922.68	0.000598885
1932.32	-0.000652986
1941.97	-0.00149899
1951.61	-0.00326952
1961.25	-0.00381732
1970.89	-0.00407696
1980.54	-0.00209918
1990.18	-0.00307317
1999.82	-0.00105079
2009.46	-0.00262814
2019.11	-0.00373411
2028.75	-0.00204373
2038.39	-0.00340079
2048.03	-0.0003194
2057.67	0.00137182
2067.32	0.00227554
2076.96	0.00238808
2086.6	0.00249169
2096.24	0.000999309
2105.89	0.00165627
2115.53	0.00179656
2125.17	0.00127879
2134.81	-0.00245833
2144.45	-0.00114191
2154.1	-0.00599245
2163.74	6.58268e-05
2173.38	0.000789335
2183.02	0.00111106
2192.67	0.00169651
2202.31	0.00322205
2211.95	0.00264233
2221.59	0.00374339
2231.24	0.00440554
2240.88	0.00524784
2250.52	0.00461857
2260.16	0.00475362
2269.8	0.00453493
2279.45	0.00548995
2289.09	0.00645589
2298.73	0.0067212
2308.38	0.00800753
2318.02	0.00791961
2327.66	0.00734382
2337.3	0.00669618
2346.94	0.00743219
2356.59	0.00629734
2366.23	0.00710282
2375.87	0.0067496
2385.51	0.00634598
2395.16	0.00689535
2404.8	0.00665675
2414.44	0.00693986
2424.08	0.00711448
2433.72	0.00765817
2443.37	0.00740095
2453.01	0.00771147
2462.65	0.0076958
2472.29	0.00836513
2481.94	0.00708003
2491.58	0.0084032
2501.22	0.00779055
2510.86	0.00724632
2520.51	0.00723619
2530.15	0.00747669
2539.79	0.00791819
2549.43	0.00910582
2559.07	0.00816569
2568.72	0.00826968
2578.36	0.00892313
2588	0.00880404
2597.64	0.00892401
2607.29	0.00872986
2616.93	0.00837975
2626.57	0.00844409
2636.21	0.00950161
2645.86	0.00945122
2655.5	0.00983558
2665.14	0.00920513
2674.78	0.00865996
2684.43	0.00923136
2694.07	0.0100014
2703.71	0.00892301
2713.35	0.00902188
2722.99	0.00931708
2732.64	0.00942204
2742.28	0.0100249
2751.92	0.0101087
2761.56	0.0106736
2771.21	0.00989995
2780.85	0.0100332
2790.49	0.0106309
2800.13	0.0102257
2809.78	0.0101147
2819.42	0.0103989
2829.06	0.010491
2838.7	0.0103045
2848.34	0.0105214
2857.99	0.010624
2867.63	0.0105306
2877.27	0.0118552
2886.91	0.0109715
2896.56	0.0114273
2906.2	0.0111753
2915.84	0.0109882
2925.48	0.0111496
2935.13	0.0117694
2944.77	0.0120651
2954.41	0.012576
2964.05	0.0127658
2973.7	0.0135726
2983.34	0.0127378
2992.98	0.0129895
3002.62	0.0141806
3012.26	0.0141421
3021.91	0.0137302
3031.55	0.0136247
3041.19	0.0144689
3050.83	0.0146806
3060.48	0.0143932
3070.12	0.0155597
3079.76	0.0154594
3089.4	0.0162721
3099.05	0.0156219
3108.69	0.0166231
3118.33	0.0168744
3127.97	0.0163221
3137.61	0.0172009
3147.26	0.0185023
3156.9	0.017773
3166.54	0.0175133
3176.18	0.018392
3185.83	0.0190544
3195.47	0.0180333
3205.11	0.0189353
3214.75	0.0194434
3224.4	0.0200136
3234.04	0.0189941
3243.68	0.0190442
3253.32	0.0206881
3262.97	0.0214223
3272.61	0.0201333
3282.25	0.0209475
3291.89	0.0204045
3301.53	0.0209588
3311.18	0.021442
3320.82	0.0234728
3330.46	0.0207697
3340.1	0.0210798
3349.75	0.021813
3359.39	0.0221713
3369.03	0.0217034
3378.67	0.0202145
3388.32	0.0215584
3397.96	0.0195592
3407.6	0.0218335
3417.24	0.0225545
3426.89	0.0222485
3436.53	0.0208982
3446.17	0.0198243
3455.81	0.0200623
3465.45	0.0194861
3475.1	0.0201269
3484.74	0.0196243
3494.38	0.0202578
3504.02	0.0212503
3513.67	0.019093
3523.31	0.0207647
3532.95	0.0189211
3542.59	0.0199321
3552.24	0.0185361
3561.88	0.0187121
3571.52	0.01622
3581.16	0.0156387
3590.8	0.0171525
3600.45	0.0159024
3610.09	0.0141191
3619.73	0.0152917
3629.37	0.0148224
3639.02	0.0129364
3648.66	0.0144906
3658.3	0.0111895
3667.94	0.0157374
3677.59	0.0124408
3687.23	0.0114575
3696.87	0.01435
3706.51	0.0137488
3716.16	0.0120294
3725.8	0.0137088
3735.44	0.0126807
3745.08	0.0125734
3754.72	0.0116826
3764.37	0.0111703
3774.01	0.0109874
3783.65	0.0115084
3793.29	0.0125519
3802.94	0.00901536
3812.58	0.0134661
3822.22	0.0123854
3831.86	0.0119783
3841.51	0.0120859
3851.15	0.0100067
3860.79	0.00991169
3870.43	0.0113834
3880.07	0.0122509
3889.72	0.0109094
3899.36	0.0120159
3909	0.0133094
3918.64	0.0130377
3928.29	0.0126597
3937.93	0.00986375
3947.57	0.0122221
3957.21	0.0119124
3966.86	0.0119854
3976.5	0.0116025
3986.14	0.0124296
3995.78	0.0118189
