Measurement: Infrared, Infrared Data Processed
Mineral: Fluorapatite
Rruff sample: R050369
Ideal chemistry: Ca_5_(PO_4_)_3_F
Locality: Russia
Source: Eugene Schlepp
Description: Blueish-green hexagonal prismatic crystal
Measured chemistry: (Ca_0.99_Na_0.01_)_5_((P_0.98_S_0.02_)O_4_)_3_F_1.00_
x	intensity
399.193	0.0177035
408.835	0.0182383
418.477	0.0130357
428.12	0.0119855
437.762	0.0127033
447.404	0.0114411
457.047	0.0152122
466.689	0.0213179
476.331	0.0221361
485.974	0.0179183
495.616	0.0189202
505.258	0.0200462
514.901	0.0275232
524.543	0.0361176
534.185	0.0475644
543.828	0.0819534
553.47	0.16767
563.112	0.267494
572.755	0.264316
582.397	0.135261
592.039	0.128003
601.682	0.203907
611.324	0.0775491
620.966	0.0238613
630.609	0.0153309
640.251	0.0108797
649.893	0.0139202
659.536	0.010741
669.178	0.0107848
678.82	0.0109498
688.463	0.0111427
698.105	0.0103912
707.747	0.0110096
717.39	0.012759
727.032	0.0144179
736.674	0.0169225
746.317	0.0184802
755.959	0.0157933
765.601	0.013646
775.244	0.0128696
784.886	0.0134055
794.528	0.0143947
804.171	0.0151606
813.813	0.0161868
823.455	0.017421
833.098	0.0191319
842.74	0.0217198
852.382	0.0249397
862.025	0.0299821
871.667	0.0329155
881.309	0.0363533
890.952	0.0411931
900.594	0.0482557
910.236	0.0587816
919.879	0.0733214
929.521	0.0877244
939.163	0.0972596
948.806	0.127279
958.448	0.16998
968.09	0.164727
977.733	0.199172
987.375	0.27471
997.017	0.354705
1006.66	0.438538
1016.3	0.515244
1025.94	0.548435
1035.59	0.505083
1045.23	0.404763
1054.87	0.313021
1064.51	0.241378
1074.16	0.179925
1083.8	0.14067
1093.44	0.173127
1103.08	0.110052
1112.72	0.0677165
1122.37	0.0339292
1132.01	0.0194423
1141.65	0.0172634
1151.3	0.0172476
1160.94	0.0155015
1170.58	0.0138297
1180.22	0.0112461
1189.86	0.00865137
1199.51	0.00650444
1209.15	0.00537054
1218.79	0.00449098
1228.43	0.00348343
1238.08	0.00301485
1247.72	0.00316739
1257.36	0.00297124
1267	0.00281525
1276.64	0.00327014
1286.29	0.00298145
1295.93	0.00301174
1305.57	0.0024919
1315.21	0.0027049
1324.86	0.0028047
1334.5	0.00266335
1344.14	0.00264792
1353.78	0.00273307
1363.43	0.00274473
1373.07	0.00315753
1382.71	0.00387738
1392.35	0.00449097
1401.99	0.00629655
1411.64	0.00805242
1421.28	0.0106022
1430.92	0.0110441
1440.57	0.00831029
1450.21	0.0109804
1459.85	0.0100389
1469.49	0.00782038
1479.13	0.00726421
1488.78	0.00649498
1498.42	0.00614464
1508.06	0.00567098
1517.7	0.0052161
1527.35	0.00521185
1536.99	0.00531647
1546.63	0.00523732
1556.27	0.00510234
1565.91	0.00536872
1575.56	0.0055386
1585.2	0.00487179
1594.84	0.00578131
1604.48	0.00568237
1614.13	0.00574558
1623.77	0.00528168
1633.41	0.00563679
1643.05	0.0057042
1652.7	0.00584212
1662.34	0.00545069
1671.98	0.00551954
1681.62	0.0048139
1691.27	0.00539785
1700.91	0.00547728
1710.55	0.00527472
1720.19	0.0054331
1729.84	0.0053044
1739.48	0.00480984
1749.12	0.00448808
1758.76	0.00476417
1768.4	0.00497698
1778.05	0.00462021
1787.69	0.00488956
1797.33	0.00474725
1806.97	0.00545725
1816.62	0.00505924
1826.26	0.00483839
1835.9	0.00461555
1845.54	0.0053138
1855.18	0.0044808
1864.83	0.00517199
1874.47	0.00563008
1884.11	0.00426671
1893.75	0.00507094
1903.4	0.00524564
1913.04	0.00256236
1922.68	0.00449438
1932.32	0.00389288
1941.97	0.00139461
1951.61	0.000163876
1961.25	0.00019686
1970.89	0.00251658
1980.54	0.0047272
1990.18	0.00135909
1999.82	0.0040937
2009.46	-0.00310165
2019.11	-0.00336701
2028.75	-0.000427889
2038.39	-0.00348509
2048.03	-0.000643483
2057.67	-0.00176103
2067.32	0.000760176
2076.96	0.00186152
2086.6	0.00317642
2096.24	0.00270415
2105.89	0.00127333
2115.53	0.00472454
2125.17	0.00087138
2134.81	0.00121121
2144.45	0.00306072
2154.1	-0.000774301
2163.74	0.00250163
2173.38	0.00236224
2183.02	0.00299386
2192.67	0.00245079
2202.31	0.00481933
2211.95	0.00472221
2221.59	0.00562718
2231.24	0.00393164
2240.88	0.0101663
2250.52	0.00832946
2260.16	0.00983386
2269.8	0.00945543
2279.45	0.0117419
2289.09	0.00921534
2298.73	0.0102774
2308.38	0.0106421
2318.02	0.0117911
2327.66	0.0126386
2337.3	0.012912
2346.94	0.0114042
2356.59	0.0130009
2366.23	0.0137357
2375.87	0.0102571
2385.51	0.00902601
2395.16	0.00968118
2404.8	0.0103894
2414.44	0.0110175
2424.08	0.0107575
2433.72	0.0121942
2443.37	0.0103262
2453.01	0.0108669
2462.65	0.0118108
2472.29	0.0117298
2481.94	0.010974
2491.58	0.0111179
2501.22	0.0117758
2510.86	0.0118687
2520.51	0.0121917
2530.15	0.0105786
2539.79	0.0112591
2549.43	0.0120061
2559.07	0.0121194
2568.72	0.0116584
2578.36	0.0114138
2588	0.0116969
2597.64	0.0113496
2607.29	0.011142
2616.93	0.0123355
2626.57	0.0117063
2636.21	0.0130538
2645.86	0.0126825
2655.5	0.0118482
2665.14	0.0129301
2674.78	0.0123347
2684.43	0.0120837
2694.07	0.012846
2703.71	0.0128767
2713.35	0.013252
2722.99	0.0124048
2732.64	0.013002
2742.28	0.0133587
2751.92	0.0133979
2761.56	0.0130074
2771.21	0.0137825
2780.85	0.013375
2790.49	0.0124451
2800.13	0.0129432
2809.78	0.0132063
2819.42	0.013451
2829.06	0.013323
2838.7	0.0143438
2848.34	0.0154106
2857.99	0.0170259
2867.63	0.0133011
2877.27	0.0129372
2886.91	0.0129574
2896.56	0.0150623
2906.2	0.0143862
2915.84	0.0154001
2925.48	0.0172932
2935.13	0.0153033
2944.77	0.0145175
2954.41	0.0163317
2964.05	0.0152987
2973.7	0.0140571
2983.34	0.0153332
2992.98	0.0153362
3002.62	0.0147706
3012.26	0.0146179
3021.91	0.015187
3031.55	0.0157996
3041.19	0.0160773
3050.83	0.0155538
3060.48	0.01632
3070.12	0.0151618
3079.76	0.0158697
3089.4	0.0155037
3099.05	0.0150436
3108.69	0.0156024
3118.33	0.0169616
3127.97	0.0161194
3137.61	0.0159669
3147.26	0.0165621
3156.9	0.0168928
3166.54	0.0170557
3176.18	0.0170302
3185.83	0.0161476
3195.47	0.0168108
3205.11	0.0170177
3214.75	0.0154167
3224.4	0.0180441
3234.04	0.018022
3243.68	0.0192626
3253.32	0.0194781
3262.97	0.0158271
3272.61	0.0175787
3282.25	0.019374
3291.89	0.019794
3301.53	0.0179976
3311.18	0.0191071
3320.82	0.0160139
3330.46	0.0187581
3340.1	0.0181261
3349.75	0.0204604
3359.39	0.0194697
3369.03	0.0183081
3378.67	0.0183644
3388.32	0.0177112
3397.96	0.0163008
3407.6	0.0173927
3417.24	0.0197656
3426.89	0.0186306
3436.53	0.0180628
3446.17	0.0202504
3455.81	0.0199322
3465.45	0.0174287
3475.1	0.0188298
3484.74	0.0169142
3494.38	0.0183446
3504.02	0.0206987
3513.67	0.0189276
3523.31	0.0239735
3532.95	0.0209455
3542.59	0.0184986
3552.24	0.0206136
3561.88	0.0181627
3571.52	0.019796
3581.16	0.0181496
3590.8	0.017541
3600.45	0.0165363
3610.09	0.020993
3619.73	0.0168414
3629.37	0.0201049
3639.02	0.0164267
3648.66	0.0192288
3658.3	0.0143906
3667.94	0.0181839
3677.59	0.0142776
3687.23	0.0135326
3696.87	0.0177123
3706.51	0.0180153
3716.16	0.0201831
3725.8	0.0172574
3735.44	0.0176392
3745.08	0.0191086
3754.72	0.0206014
3764.37	0.0191443
3774.01	0.0196872
3783.65	0.0161235
3793.29	0.0140807
3802.94	0.0215209
3812.58	0.0209535
3822.22	0.0177312
3831.86	0.0211964
3841.51	0.0221981
3851.15	0.0195261
3860.79	0.0148049
3870.43	0.0215317
3880.07	0.0162801
3889.72	0.0207397
3899.36	0.0171264
3909	0.0191309
3918.64	0.0207171
3928.29	0.0195181
3937.93	0.0183548
3947.57	0.0163923
3957.21	0.0185563
3966.86	0.0185498
3976.5	0.0170786
3986.14	0.0223702
3995.78	0.0206494
