Measurement: Infrared, Infrared Data Processed
Mineral: Forsterite
Rruff sample: R040057
Ideal chemistry: Mg_2_SiO_4_
Locality: Trudy's mine, San Carlos, Gila County, Arizona, USA
Source: Bob Downs
Description: Dark green crystal fragments from xenoliths in a basalt flow
Measured chemistry: (Mg_1.67_Fe_0.32_Ni_0.01_)_Î£=2_Si_1.00_O_4_; trace amounts of Mn and Ca
x	intensity
399.193	0
408.835	0.174601
418.477	0.145146
428.12	0.114809
437.762	0.0948544
447.404	0.0804867
457.047	0.0841922
466.689	0.0925257
476.331	0.0886114
485.974	0.116499
495.616	0.149175
505.258	0.132336
514.901	0.123684
524.543	0.111145
534.185	0.0861302
543.828	0.0701205
553.47	0.0491664
563.112	0.0351832
572.755	0.0293901
582.397	0.0351828
592.039	0.0585501
601.682	0.0685122
611.324	0.062151
620.966	0.0460275
630.609	0.0295711
640.251	0.018728
649.893	0.0139193
659.536	0.0118891
669.178	0.0116135
678.82	0.0113313
688.463	0.0115431
698.105	0.0120821
707.747	0.0130163
717.39	0.0145127
727.032	0.0158985
736.674	0.0187728
746.317	0.0227737
755.959	0.0269519
765.601	0.0332326
775.244	0.040776
784.886	0.0517902
794.528	0.065493
804.171	0.0834238
813.813	0.105809
823.455	0.134591
833.098	0.166134
842.74	0.153211
852.382	0.172844
862.025	0.20624
871.667	0.230839
881.309	0.228614
890.952	0.204064
900.594	0.175682
910.236	0.153414
919.879	0.136303
929.521	0.121299
939.163	0.108901
948.806	0.0997406
958.448	0.0717178
968.09	0.0922678
977.733	0.102472
987.375	0.0864104
997.017	0.082145
1006.66	0.0732244
1016.3	0.060332
1025.94	0.0460734
1035.59	0.0331997
1045.23	0.0220702
1054.87	0.0132191
1064.51	0.00679232
1074.16	0.00345707
1083.8	0.00178828
1093.44	0.000803124
1103.08	-0.000122653
1112.72	-0.000728941
1122.37	-0.000589633
1132.01	-0.00117365
1141.65	-0.00150308
1151.3	-0.00173495
1160.94	-0.00192479
1170.58	-0.00223418
1180.22	-0.0018256
1189.86	-0.00209461
1199.51	-0.00178663
1209.15	-0.00170909
1218.79	-0.00179537
1228.43	-0.00208667
1238.08	-0.00175303
1247.72	-0.00190017
1257.36	-0.00213027
1267	-0.00214747
1276.64	-0.00163431
1286.29	-0.00157376
1295.93	-0.00138129
1305.57	-0.00128918
1315.21	-0.000989337
1324.86	-0.00126128
1334.5	-0.000885999
1344.14	-0.000988944
1353.78	-0.00107542
1363.43	-0.000603678
1373.07	-0.000452877
1382.71	-0.000430644
1392.35	-6.6744e-05
1401.99	0.000923821
1411.64	0.00192656
1421.28	0.00325141
1430.92	0.00346038
1440.57	0.00379001
1450.21	0.00386297
1459.85	0.00400268
1469.49	0.00343085
1479.13	0.00304965
1488.78	0.00241542
1498.42	0.00181142
1508.06	0.0022633
1517.7	0.00123133
1527.35	0.000942111
1536.99	-0.000166087
1546.63	0.00095023
1556.27	-7.39212e-05
1565.91	0.00173327
1575.56	0.00051216
1585.2	0.00172871
1594.84	0.00210687
1604.48	0.00197515
1614.13	0.00136367
1623.77	0.001926
1633.41	0.000580686
1643.05	0.000991725
1652.7	-0.000838728
1662.34	0.00101171
1671.98	0.00156313
1681.62	0.000401783
1691.27	0.00131329
1700.91	0.00247909
1710.55	0.00103116
1720.19	-1.23878e-06
1729.84	-0.00113448
1739.48	-0.00262477
1749.12	-0.00125459
1758.76	-0.000473288
1768.4	0.0002511
1778.05	0.000130854
1787.69	-0.000121932
1797.33	-0.000183362
1806.97	-0.000100766
1816.62	-0.00089751
1826.26	0.000226962
1835.9	-0.000660227
1845.54	-0.000117026
1855.18	-0.00124501
1864.83	-0.00140564
1874.47	-0.00101739
1884.11	-0.00104057
1893.75	-0.00178828
1903.4	-0.00172252
1913.04	-0.00223907
1922.68	-0.00223822
1932.32	-0.00248943
1941.97	-0.00403387
1951.61	-0.00395046
1961.25	-0.0054867
1970.89	-0.00659483
1980.54	-0.00487557
1990.18	-0.00419768
1999.82	-0.0054043
2009.46	-0.00451374
2019.11	-0.00652874
2028.75	-0.00654383
2038.39	-0.0027901
2048.03	-0.000664458
2057.67	-0.00119183
2067.32	-0.000558311
2076.96	-0.00147489
2086.6	4.20103e-05
2096.24	0.00112094
2105.89	0.000119362
2115.53	0.00122366
2125.17	-0.000886855
2134.81	-0.00146933
2144.45	-0.00136789
2154.1	-0.00481671
2163.74	0.00199854
2173.38	-0.00276144
2183.02	-0.00040814
2192.67	0.00228796
2202.31	0.00212623
2211.95	0.00119882
2221.59	0.00052061
2231.24	0.00335332
2240.88	0.00184796
2250.52	0.00194991
2260.16	0.00322631
2269.8	0.00217342
2279.45	0.00472848
2289.09	0.00248036
2298.73	0.00299539
2308.38	0.00339214
2318.02	0.00418027
2327.66	0.00336887
2337.3	0.00357165
2346.94	0.00387061
2356.59	0.00351856
2366.23	0.00259422
2375.87	0.00302955
2385.51	0.00230758
2395.16	0.00179732
2404.8	0.00300925
2414.44	0.00235158
2424.08	0.00144963
2433.72	0.00190817
2443.37	0.00174811
2453.01	0.00271766
2462.65	0.00230293
2472.29	0.00186967
2481.94	0.00230332
2491.58	0.00224211
2501.22	0.00207591
2510.86	0.00264657
2520.51	0.0020746
2530.15	0.00447592
2539.79	0.00312283
2549.43	0.00302672
2559.07	0.00305117
2568.72	0.00210076
2578.36	0.00315658
2588	0.00196805
2597.64	0.00403888
2607.29	0.00328908
2616.93	0.00321128
2626.57	0.00295361
2636.21	0.00417461
2645.86	0.00337965
2655.5	0.00402426
2665.14	0.00322944
2674.78	0.00344387
2684.43	0.00286402
2694.07	0.00308315
2703.71	0.00352625
2713.35	0.00207727
2722.99	0.00247769
2732.64	0.00267146
2742.28	0.00193732
2751.92	0.0031813
2761.56	0.00271464
2771.21	0.00250574
2780.85	0.00242281
2790.49	0.0030476
2800.13	0.00319066
2809.78	0.00227032
2819.42	0.00343925
2829.06	0.00364723
2838.7	0.00284797
2848.34	0.00211056
2857.99	0.00246706
2867.63	0.00262301
2877.27	0.00246227
2886.91	0.00169017
2896.56	0.0024049
2906.2	0.0018644
2915.84	0.00110469
2925.48	0.00337963
2935.13	0.00215298
2944.77	0.00207211
2954.41	0.00188168
2964.05	0.00271627
2973.7	0.00252638
2983.34	0.0038867
2992.98	0.00306454
3002.62	0.00399524
3012.26	0.00421202
3021.91	0.0039355
3031.55	0.00322755
3041.19	0.00374072
3050.83	0.00351053
3060.48	0.00320903
3070.12	0.00407166
3079.76	0.00463049
3089.4	0.00429681
3099.05	0.00389751
3108.69	0.00350987
3118.33	0.00472163
3127.97	0.00370366
3137.61	0.00357862
3147.26	0.00482642
3156.9	0.00565649
3166.54	0.00486447
3176.18	0.00451778
3185.83	0.00489444
3195.47	0.00489312
3205.11	0.00382116
3214.75	0.00488041
3224.4	0.0041624
3234.04	0.00464108
3243.68	0.00264426
3253.32	0.00274387
3262.97	0.00392596
3272.61	0.00446542
3282.25	0.00545628
3291.89	0.00387558
3301.53	0.00408386
3311.18	0.00476366
3320.82	0.0031307
3330.46	0.00610821
3340.1	0.00566437
3349.75	0.00416163
3359.39	0.00529193
3369.03	0.00333651
3378.67	0.00523393
3388.32	0.00401485
3397.96	0.00532536
3407.6	0.00591307
3417.24	0.00246157
3426.89	0.00338441
3436.53	0.00653386
3446.17	0.00445347
3455.81	0.00521598
3465.45	0.0046909
3475.1	0.00614574
3484.74	0.00777759
3494.38	0.00396388
3504.02	0.000782337
3513.67	0.00500169
3523.31	0.00432374
3532.95	0.00258824
3542.59	0.00326838
3552.24	0.00494664
3561.88	0.00458047
3571.52	0.00501524
3581.16	0.00492408
3590.8	0.00537722
3600.45	0.00580299
3610.09	0.00265345
3619.73	0.00401097
3629.37	0.00263763
3639.02	0.00496537
3648.66	0.00239633
3658.3	0.00315524
3667.94	0.00237125
3677.59	0.00234732
3687.23	-7.31702e-05
3696.87	0.00384784
3706.51	0.00107263
3716.16	0.00618341
3725.8	0.00173579
3735.44	0.00217534
3745.08	0.000375048
3754.72	0.00634837
3764.37	0.00600878
3774.01	0.00438907
3783.65	0.00521332
3793.29	0.00419138
3802.94	0.00657742
3812.58	0.00309907
3822.22	0.00539141
3831.86	0.0036193
3841.51	0.00412217
3851.15	0.00304829
3860.79	0.00210044
3870.43	0.00356114
3880.07	0.00218698
3889.72	0.00484881
3899.36	0.00543101
3909	0.00560762
3918.64	0.00760897
3928.29	0.00480601
3937.93	0.00374645
3947.57	0.00375105
3957.21	0.00644559
3966.86	0.00755526
3976.5	0.00253955
3986.14	0.00614459
3995.78	0.00706057
