Measurement: Infrared, Infrared Data Processed
Mineral: Forsterite
Rruff sample: R040018
Ideal chemistry: Mg_2_SiO_4_
Locality: Trudy's mine, San Carlos, Gila County, Arizona, USA
Source: Bob Downs
Description: Green fragments from xenoliths in a basalt flow
Measured chemistry: (Mg_1.81_Fe_0.18_Ni_0.01_)_Î£=2_Si_1.00_O_4_; trace amounts of Mn and Ca
x	intensity
399.193	0
408.835	0.216969
418.477	0.197459
428.12	0.154254
437.762	0.116169
447.404	0.0971879
457.047	0.086613
466.689	0.0993328
476.331	0.092503
485.974	0.0984895
495.616	0.150293
505.258	0.15788
514.901	0.138488
524.543	0.129377
534.185	0.0992442
543.828	0.0792148
553.47	0.0558106
563.112	0.0386968
572.755	0.0289067
582.397	0.0286972
592.039	0.0469807
601.682	0.0685727
611.324	0.0675939
620.966	0.0522538
630.609	0.0343573
640.251	0.02144
649.893	0.0153239
659.536	0.0126052
669.178	0.0122427
678.82	0.0120231
688.463	0.0118114
698.105	0.0122293
707.747	0.0129421
717.39	0.0137928
727.032	0.0154009
736.674	0.0176866
746.317	0.0207917
755.959	0.0244494
765.601	0.0290096
775.244	0.0353275
784.886	0.0442845
794.528	0.0557999
804.171	0.0706719
813.813	0.090061
823.455	0.114851
833.098	0.144951
842.74	0.139859
852.382	0.150261
862.025	0.186143
871.667	0.214041
881.309	0.220287
890.952	0.202158
900.594	0.176294
910.236	0.154021
919.879	0.136034
929.521	0.121396
939.163	0.109112
948.806	0.101549
958.448	0.0767136
968.09	0.0777871
977.733	0.100749
987.375	0.086217
997.017	0.0794621
1006.66	0.0734586
1016.3	0.0624606
1025.94	0.0497451
1035.59	0.0370882
1045.23	0.0256833
1054.87	0.0168396
1064.51	0.00991326
1074.16	0.0058716
1083.8	0.00429852
1093.44	0.00351335
1103.08	0.00270289
1112.72	0.00223984
1122.37	0.00195012
1132.01	0.00152849
1141.65	0.00113114
1151.3	0.00129199
1160.94	0.00105446
1170.58	0.00112091
1180.22	0.000972973
1189.86	0.00109128
1199.51	0.00116843
1209.15	0.00108987
1218.79	0.00131259
1228.43	0.00147854
1238.08	0.00142909
1247.72	0.00121109
1257.36	0.00134704
1267	0.00147316
1276.64	0.00150762
1286.29	0.00169032
1295.93	0.00159193
1305.57	0.00179445
1315.21	0.00202456
1324.86	0.00229563
1334.5	0.00254736
1344.14	0.0024593
1353.78	0.00274197
1363.43	0.00306812
1373.07	0.00325113
1382.71	0.00333598
1392.35	0.00379159
1401.99	0.00409528
1411.64	0.00509635
1421.28	0.0056574
1430.92	0.00580367
1440.57	0.00596461
1450.21	0.00620401
1459.85	0.00611195
1469.49	0.00604778
1479.13	0.00569255
1488.78	0.00546177
1498.42	0.00512336
1508.06	0.00477238
1517.7	0.00474543
1527.35	0.00453727
1536.99	0.0044291
1546.63	0.00443089
1556.27	0.00462421
1565.91	0.00487003
1575.56	0.005291
1585.2	0.00509917
1594.84	0.00529367
1604.48	0.00533005
1614.13	0.00532372
1623.77	0.0049768
1633.41	0.00491844
1643.05	0.00476202
1652.7	0.00466834
1662.34	0.00436818
1671.98	0.00445732
1681.62	0.00438094
1691.27	0.0041312
1700.91	0.00451258
1710.55	0.00403167
1720.19	0.00384406
1729.84	0.00331712
1739.48	0.00324722
1749.12	0.00375203
1758.76	0.00373098
1768.4	0.00401142
1778.05	0.00420179
1787.69	0.00412504
1797.33	0.00319802
1806.97	0.00351063
1816.62	0.00335706
1826.26	0.00357861
1835.9	0.00369113
1845.54	0.00365835
1855.18	0.00319985
1864.83	0.00305445
1874.47	0.00295755
1884.11	0.00348979
1893.75	0.00361573
1903.4	0.00304891
1913.04	0.00402521
1922.68	0.00301223
1932.32	0.00194573
1941.97	0.000915754
1951.61	0.00194539
1961.25	7.06004e-05
1970.89	0.000731738
1980.54	0.00272654
1990.18	0.00263583
1999.82	0.000746746
2009.46	0.0013861
2019.11	0.00327933
2028.75	-0.000251969
2038.39	0.00333892
2048.03	0.0034226
2057.67	0.0029853
2067.32	0.0045463
2076.96	0.00302178
2086.6	0.00552202
2096.24	0.00313825
2105.89	0.00566527
2115.53	0.00546285
2125.17	0.00481924
2134.81	0.00549558
2144.45	0.00156945
2154.1	0.000271659
2163.74	0.00232634
2173.38	0.00457572
2183.02	0.00460325
2192.67	0.00512037
2202.31	0.00453555
2211.95	0.00430248
2221.59	0.0046229
2231.24	0.00413768
2240.88	0.00533389
2250.52	0.00527161
2260.16	0.00591303
2269.8	0.00600757
2279.45	0.00761559
2289.09	0.00706807
2298.73	0.00702274
2308.38	0.0074446
2318.02	0.0074513
2327.66	0.00687693
2337.3	0.00638188
2346.94	0.00659243
2356.59	0.00679777
2366.23	0.00604922
2375.87	0.0069348
2385.51	0.00699222
2395.16	0.00640179
2404.8	0.00614607
2414.44	0.0066626
2424.08	0.00620564
2433.72	0.00679748
2443.37	0.00737917
2453.01	0.00652536
2462.65	0.00624174
2472.29	0.0059872
2481.94	0.00657822
2491.58	0.0072741
2501.22	0.00645724
2510.86	0.0064293
2520.51	0.00665131
2530.15	0.00686792
2539.79	0.00640729
2549.43	0.00617021
2559.07	0.00583686
2568.72	0.00746672
2578.36	0.00622546
2588	0.00698531
2597.64	0.00730235
2607.29	0.00704492
2616.93	0.00749138
2626.57	0.00781934
2636.21	0.00699861
2645.86	0.00735261
2655.5	0.00702199
2665.14	0.00665343
2674.78	0.0061359
2684.43	0.00688686
2694.07	0.00746072
2703.71	0.00660178
2713.35	0.00658013
2722.99	0.00691085
2732.64	0.00661534
2742.28	0.00664342
2751.92	0.00727735
2761.56	0.0072572
2771.21	0.00645544
2780.85	0.00700687
2790.49	0.00746975
2800.13	0.00757456
2809.78	0.0062958
2819.42	0.00699317
2829.06	0.00728902
2838.7	0.00709297
2848.34	0.00653153
2857.99	0.0063741
2867.63	0.00625252
2877.27	0.00688733
2886.91	0.00740835
2896.56	0.00695802
2906.2	0.00698314
2915.84	0.00578397
2925.48	0.00508887
2935.13	0.00717321
2944.77	0.00654367
2954.41	0.00578089
2964.05	0.00738081
2973.7	0.00766105
2983.34	0.00650658
2992.98	0.00780495
3002.62	0.006673
3012.26	0.0067902
3021.91	0.00755378
3031.55	0.00707169
3041.19	0.0081112
3050.83	0.00685841
3060.48	0.00647768
3070.12	0.00637769
3079.76	0.00721169
3089.4	0.00797316
3099.05	0.00771781
3108.69	0.00821266
3118.33	0.00705166
3127.97	0.00704586
3137.61	0.00855307
3147.26	0.00702068
3156.9	0.00826254
3166.54	0.00817558
3176.18	0.00690789
3185.83	0.00649155
3195.47	0.00638543
3205.11	0.00810275
3214.75	0.0103401
3224.4	0.00769789
3234.04	0.00731137
3243.68	0.00748672
3253.32	0.00828118
3262.97	0.00830042
3272.61	0.00806957
3282.25	0.00694597
3291.89	0.00835557
3301.53	0.00787367
3311.18	0.00722115
3320.82	0.0077394
3330.46	0.00629323
3340.1	0.00925641
3349.75	0.00639092
3359.39	0.00796728
3369.03	0.00836426
3378.67	0.00824532
3388.32	0.00923217
3397.96	0.00871736
3407.6	0.00927256
3417.24	0.00758174
3426.89	0.00880873
3436.53	0.00761704
3446.17	0.00571927
3455.81	0.00786062
3465.45	0.00808781
3475.1	0.00666759
3484.74	0.00847032
3494.38	0.00731755
3504.02	0.00752091
3513.67	0.00786559
3523.31	0.00895298
3532.95	0.00891563
3542.59	0.00878746
3552.24	0.00632947
3561.88	0.0105172
3571.52	0.00664068
3581.16	0.00715465
3590.8	0.00657473
3600.45	0.00690795
3610.09	0.00721428
3619.73	0.00601991
3629.37	0.00760083
3639.02	0.00604559
3648.66	0.00591026
3658.3	0.00613833
3667.94	0.00899523
3677.59	0.00778969
3687.23	0.00597582
3696.87	0.00771024
3706.51	0.00823524
3716.16	0.00777905
3725.8	0.00533245
3735.44	0.00639766
3745.08	0.00796747
3754.72	0.00684089
3764.37	0.00826551
3774.01	0.0089275
3783.65	0.00574654
3793.29	0.00648096
3802.94	0.00927566
3812.58	0.00716478
3822.22	0.00802376
3831.86	0.00582904
3841.51	0.00797256
3851.15	0.0081246
3860.79	0.00564125
3870.43	0.00830374
3880.07	0.00864162
3889.72	0.00954875
3899.36	0.00879519
3909	0.00541744
3918.64	0.0077537
3928.29	0.00599634
3937.93	0.00644316
3947.57	0.00706794
3957.21	0.00716079
3966.86	0.00779492
3976.5	0.00579099
3986.14	0.00583322
3995.78	0.00662355
