Measurement: Infrared, Infrared Data Processed
Mineral: Forsterite
Rruff sample: R050117
Ideal chemistry: Mg_2_SiO_4_
Locality: Sapat, Gilgit, Pakistan
Source: Farooq and Nazia Sawal
Description: Fragment of a green crystal
Measured chemistry: (Mg_1.81_Fe_0.18_Ni_0.01_)_Î£=2_Si_1.00_O_4_
x	intensity
374.123	0.195593
383.765	0.246274
393.407	0.27797
403.05	0.243121
412.692	0.249579
422.334	0.202326
431.976	0.1534
441.619	0.124987
451.261	0.104844
460.904	0.106423
470.546	0.118467
480.188	0.0989172
489.83	0.137807
499.473	0.193449
509.115	0.169408
518.758	0.156246
528.4	0.1327
538.042	0.0982652
547.684	0.0778687
557.327	0.0540363
566.969	0.0398473
576.611	0.0326015
586.254	0.0394572
595.896	0.0685588
605.538	0.0841491
615.181	0.0738579
624.823	0.0540955
634.466	0.0356781
644.108	0.0242803
653.75	0.0195308
663.393	0.017562
673.035	0.0171101
682.677	0.0171118
692.319	0.0171458
701.962	0.0178996
711.604	0.0187581
721.246	0.0203894
730.889	0.0224084
740.531	0.0251345
750.173	0.0295048
759.816	0.0350192
769.458	0.0422803
779.101	0.0520561
788.743	0.0648874
798.385	0.0820497
808.028	0.10375
817.67	0.130141
827.312	0.163265
836.955	0.189447
846.597	0.165907
856.239	0.202579
865.881	0.238584
875.524	0.252847
885.166	0.240529
894.808	0.211579
904.451	0.1835
914.093	0.161308
923.736	0.143903
933.378	0.129957
943.02	0.119881
952.663	0.111787
962.305	0.0782746
971.947	0.0995702
981.59	0.114548
991.232	0.0889759
1000.87	0.0833512
1010.52	0.0737506
1020.16	0.061282
1029.8	0.0484049
1039.44	0.0351924
1049.09	0.0236036
1058.73	0.0147451
1068.37	0.00810985
1078.01	0.00495787
1087.65	0.00350342
1097.3	0.00228712
1106.94	0.00149767
1116.58	0.000886181
1126.22	0.0005511
1135.87	0.000304116
1145.51	0.000156135
1155.15	0.000146461
1164.79	-9.96021e-05
1174.44	-0.000107118
1184.08	0.00015472
1193.72	-6.09473e-05
1203.36	1.73447e-05
1213.01	0.000168149
1222.65	0.000128558
1232.29	0.000254559
1241.93	0.000122065
1251.58	0.000524638
1261.22	0.000255559
1270.86	0.000385598
1280.5	0.000567937
1290.14	0.000574182
1299.79	0.000844274
1309.43	0.00109122
1319.07	0.00108984
1328.71	0.00123218
1338.36	0.00164629
1348	0.0014714
1357.64	0.00156311
1367.28	0.00199558
1376.92	0.00219764
1386.57	0.00224687
1396.21	0.00262489
1405.85	0.0030322
1415.49	0.00348509
1425.14	0.00373668
1434.78	0.00423195
1444.42	0.00392106
1454.06	0.00431648
1463.71	0.00407259
1473.35	0.00417031
1482.99	0.00400178
1492.63	0.00392987
1502.28	0.00382787
1511.92	0.00369539
1521.56	0.00388826
1531.2	0.00357157
1540.85	0.00428465
1550.49	0.00364754
1560.13	0.00458606
1569.77	0.0042438
1579.41	0.00410212
1589.06	0.00395276
1598.7	0.00414272
1608.34	0.0040568
1617.98	0.00425736
1627.63	0.00396605
1637.27	0.00430205
1646.91	0.00408422
1656.55	0.00394955
1666.19	0.003953
1675.84	0.00402663
1685.48	0.00430052
1695.12	0.00450322
1704.77	0.0039441
1714.41	0.0037895
1724.05	0.00343799
1733.69	0.00401651
1743.33	0.0028537
1752.98	0.00293426
1762.62	0.00337164
1772.26	0.00408065
1781.9	0.00347151
1791.55	0.00331972
1801.19	0.00312395
1810.83	0.00304531
1820.47	0.00286554
1830.12	0.00311074
1839.76	0.00257036
1849.4	0.00251247
1859.04	0.00283266
1868.68	0.00271303
1878.33	0.00209851
1887.97	0.00227055
1897.61	0.00231966
1907.25	0.00155745
1916.9	0.00263258
1926.54	0.00168813
1936.18	0.00143146
1945.82	0.00100767
1955.46	-0.000826609
1965.11	-0.000724584
1974.75	-0.00135898
1984.39	0.00246484
1994.04	-0.000850371
2003.68	-0.00151198
2013.32	-0.00211679
2022.96	0.000543638
2032.6	-0.000202157
2042.25	0.00223789
2051.89	0.00220586
2061.53	0.00247709
2071.17	0.00489103
2080.82	0.00458673
2090.46	0.00444419
2100.1	0.0037193
2109.74	0.00474486
2119.39	0.00411037
2129.03	0.00104152
2138.67	0.00292151
2148.31	0.00293083
2157.95	0.000966343
2167.6	0.00538567
2177.24	0.00353949
2186.88	0.00514686
2196.52	0.00604425
2206.17	0.00465558
2215.81	0.00548515
2225.45	0.00619509
2235.09	0.00749633
2244.74	0.00549639
2254.38	0.0049136
2264.02	0.00618635
2273.66	0.00614121
2283.3	0.00730349
2292.95	0.00723469
2302.59	0.00638003
2312.23	0.0073244
2321.87	0.00888013
2331.52	0.00762301
2341.16	0.00744799
2350.8	0.00700061
2360.44	0.00756488
2370.09	0.00693612
2379.73	0.00541848
2389.37	0.00589473
2399.01	0.00634997
2408.66	0.00619059
2418.3	0.00665427
2427.94	0.00659499
2437.58	0.00702575
2447.22	0.00714171
2456.87	0.00667307
2466.51	0.00755298
2476.15	0.00742851
2485.79	0.00731919
2495.44	0.00695964
2505.08	0.00739895
2514.72	0.00731276
2524.36	0.00676196
2534.01	0.0084546
2543.65	0.00776917
2553.29	0.00740652
2562.93	0.00796123
2572.57	0.00825907
2582.22	0.0083683
2591.86	0.00805178
2601.5	0.00823003
2611.14	0.00807718
2620.79	0.00913554
2630.43	0.00828002
2640.07	0.00850423
2649.71	0.00878368
2659.36	0.0081122
2669	0.00789993
2678.64	0.00781079
2688.28	0.00729597
2697.93	0.00771359
2707.57	0.00777891
2717.21	0.00730318
2726.85	0.00751475
2736.49	0.00791158
2746.14	0.0076244
2755.78	0.00767277
2765.42	0.00821172
2775.06	0.00846905
2784.71	0.00832779
2794.35	0.00807428
2803.99	0.0083589
2813.63	0.0083163
2823.28	0.00807961
2832.92	0.00817013
2842.56	0.00832557
2852.2	0.00827893
2861.84	0.00804424
2871.49	0.00810409
2881.13	0.0081461
2890.77	0.00857902
2900.41	0.0081689
2910.06	0.00786245
2919.7	0.00770988
2929.34	0.00785615
2938.98	0.00735124
2948.62	0.00754586
2958.27	0.0072734
2967.91	0.00859271
2977.55	0.00784499
2987.2	0.00809307
2996.84	0.00784864
3006.48	0.00798966
3016.12	0.00636339
3025.76	0.00735849
3035.41	0.00768377
3045.05	0.00803297
3054.69	0.00751383
3064.33	0.00809988
3073.98	0.00762631
3083.62	0.00804262
3093.26	0.00803003
3102.9	0.00819925
3112.55	0.00752079
3122.19	0.00758237
3131.83	0.00856366
3141.47	0.00791185
3151.11	0.00774596
3160.76	0.00802183
3170.4	0.00805846
3180.04	0.00841347
3189.68	0.00832457
3199.33	0.00835987
3208.97	0.00768578
3218.61	0.00853494
3228.25	0.00809319
3237.9	0.00832477
3247.54	0.00806621
3257.18	0.00800637
3266.82	0.00784361
3276.47	0.00845713
3286.11	0.00845891
3295.75	0.00837103
3305.39	0.00902712
3315.03	0.00776841
3324.68	0.0089615
3334.32	0.00802188
3343.96	0.00796253
3353.6	0.0076108
3363.25	0.0076469
3372.89	0.00848996
3382.53	0.00842563
3392.17	0.00809733
3401.82	0.00771137
3411.46	0.0085452
3421.1	0.00831513
3430.74	0.00813522
3440.39	0.0078671
3450.03	0.0089862
3459.67	0.00897822
3469.31	0.00750054
3478.95	0.00795715
3488.6	0.00819082
3498.24	0.00777953
3507.88	0.00702883
3517.52	0.0075995
3527.17	0.00858339
3536.81	0.00747052
3546.45	0.00856403
3556.09	0.00591235
3565.74	0.00652518
3575.38	0.0067866
3585.02	0.00511966
3594.66	0.00909551
3604.3	0.00635771
3613.95	0.00651516
3623.59	0.00839659
3633.23	0.00774532
3642.87	0.00760626
3652.52	0.00643607
3662.16	0.00734137
3671.8	0.00786019
3681.44	0.00942822
3691.09	0.0108076
3700.73	0.00983855
3710.37	0.00863995
3720.01	0.00792846
3729.66	0.00783042
3739.3	0.00831473
3748.94	0.00895183
3758.58	0.00793044
3768.22	0.00915996
3777.87	0.00817706
3787.51	0.00839595
3797.15	0.00799627
3806.79	0.008442
3816.44	0.00736927
3826.08	0.0063247
3835.72	0.00811555
3845.36	0.00774934
3855.01	0.00975168
3864.65	0.00870763
3874.29	0.00789933
3883.93	0.00834662
3893.57	0.00888784
3903.22	0.00837364
3912.86	0.006179
3922.5	0.0079642
3932.14	0.00798836
3941.79	0.00808786
3951.43	0.00800307
3961.07	0.00804067
3970.71	0.00994367
3980.36	0.00692596
3990	0.00607062
3999.64	0.00797969
