Measurement: Infrared, Infrared Data Processed
Mineral: Gaudefroyite
Rruff sample: R050675
Ideal chemistry: Ca_4_Mn^3+^_3_(BO_3_)_3_(CO_3_)O_3_
Locality: Wessels mine, Cape Province, South Africa
Source: University of Arizona Mineral Museum
Description: Black hexagonal stubby dipyramidal crystals
Measured chemistry: Ca_4.00_(Mn^3+^_2.98_[box]_0.02_)_Σ=3_(BO_3_)_3_(CO_3_)(O_2.94_(OH)_0.06_)_Σ=3_ ; B, C, H not measured but estimated by charge balance.
x	intensity
399.193	0.1314
408.835	0.180958
418.477	0.126427
428.12	0.101853
437.762	0.15286
447.404	0.22566
457.047	0.275065
466.689	0.262363
476.331	0.195354
485.974	0.144359
495.616	0.0973021
505.258	0.0645303
514.901	0.063723
524.543	0.0750529
534.185	0.0907231
543.828	0.114343
553.47	0.136747
563.112	0.173286
572.755	0.199925
582.397	0.216502
592.039	0.218793
601.682	0.21406
611.324	0.212281
620.966	0.179014
630.609	0.0979703
640.251	0.0700058
649.893	0.0674316
659.536	0.0943549
669.178	0.0414226
678.82	0.0221935
688.463	0.0193831
698.105	0.0294841
707.747	0.0687758
717.39	0.147043
727.032	0.119978
736.674	0.0521384
746.317	0.0231597
755.959	0.0163072
765.601	0.0360692
775.244	0.00709607
784.886	0.00829538
794.528	0.0162502
804.171	0.0100929
813.813	0.0108669
823.455	0.0125808
833.098	0.0152291
842.74	0.0213313
852.382	0.0530064
862.025	0.0259746
871.667	0.0190095
881.309	0.0206362
890.952	0.0214908
900.594	0.0246648
910.236	0.0328226
919.879	0.037256
929.521	0.0557608
939.163	0.0664096
948.806	0.0320799
958.448	0.0313398
968.09	0.0333446
977.733	0.0369881
987.375	0.0404974
997.017	0.0442916
1006.66	0.0485778
1016.3	0.0520876
1025.94	0.0567223
1035.59	0.0631024
1045.23	0.06976
1054.87	0.0776799
1064.51	0.087459
1074.16	0.0993231
1083.8	0.112791
1093.44	0.137397
1103.08	0.171933
1112.72	0.169721
1122.37	0.149112
1132.01	0.160495
1141.65	0.168855
1151.3	0.177871
1160.94	0.20796
1170.58	0.262955
1180.22	0.300982
1189.86	0.31849
1199.51	0.32559
1209.15	0.327114
1218.79	0.3127
1228.43	0.268114
1238.08	0.226362
1247.72	0.187129
1257.36	0.144561
1267	0.0970452
1276.64	0.0690578
1286.29	0.0576782
1295.93	0.0493513
1305.57	0.036631
1315.21	0.0252608
1324.86	0.0202984
1334.5	0.0150986
1344.14	0.0106179
1353.78	0.00961455
1363.43	0.0100202
1373.07	0.0116438
1382.71	0.0132511
1392.35	0.0164496
1401.99	0.0197852
1411.64	0.0236544
1421.28	0.0291315
1430.92	0.0365107
1440.57	0.0447531
1450.21	0.0574541
1459.85	0.0781853
1469.49	0.114636
1479.13	0.184721
1488.78	0.261532
1498.42	0.199185
1508.06	0.0893304
1517.7	0.0204777
1527.35	0.0109364
1536.99	0.00831204
1546.63	0.00744779
1556.27	0.00742905
1565.91	0.00855774
1575.56	0.00844816
1585.2	0.00795507
1594.84	0.00774498
1604.48	0.00767828
1614.13	0.00761811
1623.77	0.00727283
1633.41	0.00719228
1643.05	0.00726807
1652.7	0.00809511
1662.34	0.00859374
1671.98	0.0084803
1681.62	0.00848061
1691.27	0.00912334
1700.91	0.00946694
1710.55	0.00934042
1720.19	0.00947689
1729.84	0.0106285
1739.48	0.00947404
1749.12	0.0104261
1758.76	0.0108597
1768.4	0.0127087
1778.05	0.0151043
1787.69	0.011687
1797.33	0.0117092
1806.97	0.0116147
1816.62	0.0111678
1826.26	0.0112028
1835.9	0.0121039
1845.54	0.0125834
1855.18	0.012326
1864.83	0.0112766
1874.47	0.0122741
1884.11	0.0144963
1893.75	0.0131795
1903.4	0.0127637
1913.04	0.0126402
1922.68	0.0145023
1932.32	0.0145619
1941.97	0.01334
1951.61	0.0108402
1961.25	0.0128808
1970.89	0.00961359
1980.54	0.0180606
1990.18	0.0168974
1999.82	0.0138691
2009.46	0.0161127
2019.11	0.01838
2028.75	0.0149334
2038.39	0.0164173
2048.03	0.0136621
2057.67	0.0182842
2067.32	0.0186126
2076.96	0.0180906
2086.6	0.0192162
2096.24	0.01742
2105.89	0.0201054
2115.53	0.0195405
2125.17	0.0189118
2134.81	0.0175186
2144.45	0.0189639
2154.1	0.00969619
2163.74	0.0206438
2173.38	0.0134391
2183.02	0.0201875
2192.67	0.0198832
2202.31	0.0176241
2211.95	0.0185226
2221.59	0.0169975
2231.24	0.0204466
2240.88	0.0192911
2250.52	0.0187067
2260.16	0.0219994
2269.8	0.0222097
2279.45	0.0237136
2289.09	0.0228657
2298.73	0.0228531
2308.38	0.0235319
2318.02	0.0253003
2327.66	0.023821
2337.3	0.0234968
2346.94	0.0231831
2356.59	0.0237704
2366.23	0.0231027
2375.87	0.0228193
2385.51	0.0223161
2395.16	0.0233393
2404.8	0.0235031
2414.44	0.0227667
2424.08	0.0248642
2433.72	0.0228915
2443.37	0.0219036
2453.01	0.023322
2462.65	0.0235348
2472.29	0.0258314
2481.94	0.0254708
2491.58	0.0264568
2501.22	0.0250029
2510.86	0.0265052
2520.51	0.0278012
2530.15	0.0275176
2539.79	0.0266281
2549.43	0.0267436
2559.07	0.0280324
2568.72	0.0284175
2578.36	0.0274629
2588	0.0293656
2597.64	0.0281472
2607.29	0.0282155
2616.93	0.0290292
2626.57	0.0299188
2636.21	0.0318666
2645.86	0.0306727
2655.5	0.0306344
2665.14	0.030652
2674.78	0.0311386
2684.43	0.0312588
2694.07	0.0311978
2703.71	0.032161
2713.35	0.0323144
2722.99	0.0328282
2732.64	0.0329667
2742.28	0.032169
2751.92	0.0345463
2761.56	0.0333791
2771.21	0.0345491
2780.85	0.033587
2790.49	0.033248
2800.13	0.0335583
2809.78	0.0321277
2819.42	0.0330322
2829.06	0.0342741
2838.7	0.0358181
2848.34	0.0349029
2857.99	0.0342059
2867.63	0.0341348
2877.27	0.0359311
2886.91	0.0341311
2896.56	0.0360699
2906.2	0.0366036
2915.84	0.038617
2925.48	0.0374097
2935.13	0.0367343
2944.77	0.0345967
2954.41	0.0337731
2964.05	0.0335612
2973.7	0.0327209
2983.34	0.031813
2992.98	0.0332494
3002.62	0.0342704
3012.26	0.0345744
3021.91	0.0358715
3031.55	0.0374447
3041.19	0.0381331
3050.83	0.0390171
3060.48	0.0397496
3070.12	0.0394152
3079.76	0.0402018
3089.4	0.0373546
3099.05	0.039864
3108.69	0.0396335
3118.33	0.0397106
3127.97	0.0416089
3137.61	0.0407271
3147.26	0.0402537
3156.9	0.0400353
3166.54	0.0415018
3176.18	0.0416344
3185.83	0.0420624
3195.47	0.0417677
3205.11	0.0429389
3214.75	0.0420059
3224.4	0.0418397
3234.04	0.0408866
3243.68	0.0429902
3253.32	0.0409398
3262.97	0.0403858
3272.61	0.0444725
3282.25	0.0427031
3291.89	0.0426519
3301.53	0.0441267
3311.18	0.0441518
3320.82	0.0445731
3330.46	0.0436432
3340.1	0.0438799
3349.75	0.0460079
3359.39	0.0433139
3369.03	0.0432551
3378.67	0.0405997
3388.32	0.0425573
3397.96	0.0435069
3407.6	0.0436776
3417.24	0.045852
3426.89	0.0448477
3436.53	0.0429246
3446.17	0.0439254
3455.81	0.0477273
3465.45	0.0432508
3475.1	0.0450206
3484.74	0.0388906
3494.38	0.0453053
3504.02	0.0417178
3513.67	0.044376
3523.31	0.042564
3532.95	0.0419118
3542.59	0.0406189
3552.24	0.0410319
3561.88	0.0409876
3571.52	0.0431261
3581.16	0.037934
3590.8	0.0395454
3600.45	0.0419528
3610.09	0.0399068
3619.73	0.0428223
3629.37	0.0392339
3639.02	0.0383851
3648.66	0.0347326
3658.3	0.0392221
3667.94	0.0385478
3677.59	0.0387624
3687.23	0.0392842
3696.87	0.0444324
3706.51	0.0402945
3716.16	0.0389808
3725.8	0.0411561
3735.44	0.0397978
3745.08	0.0400333
3754.72	0.0375401
3764.37	0.0389174
3774.01	0.04132
3783.65	0.0432652
3793.29	0.0451856
3802.94	0.044102
3812.58	0.040028
3822.22	0.0391615
3831.86	0.0368485
3841.51	0.0392019
3851.15	0.0411089
3860.79	0.0376996
3870.43	0.0389896
3880.07	0.0439911
3889.72	0.0403593
3899.36	0.0356048
3909	0.0398404
3918.64	0.0412412
3928.29	0.0389314
3937.93	0.0425339
3947.57	0.0395928
3957.21	0.0377439
3966.86	0.0414385
3976.5	0.0355116
3986.14	0.0414075
3995.78	0.0428627
