Measurement: Infrared, Infrared Data Processed
Mineral: Grossular
Rruff sample: R050036
Ideal chemistry: Ca_3_Al_2_(SiO_4_)_3_
Locality: Wah Wah Mountains, Utah, USA
Source: Eugene Schlepp
Description: Colorless single crystal in rhyolite matrix
Measured chemistry: (Ca_2.95_Mg_0.05_)_Σ=3_(Al_1.70_Fe^3+^_0.30_)_Σ=2_(Si_1.00_O_4_)_3_; trace amounts of P
x	intensity
399.193	0
408.835	0.253956
418.477	0.286928
428.12	0.289675
437.762	0.27792
447.404	0.23971
457.047	0.210437
466.689	0.207498
476.331	0.172224
485.974	0.145285
495.616	0.125168
505.258	0.107492
514.901	0.0759732
524.543	0.084757
534.185	0.145249
543.828	0.109302
553.47	0.0664075
563.112	0.0417572
572.755	0.0318539
582.397	0.0254899
592.039	0.0245919
601.682	0.0328068
611.324	0.0673607
620.966	0.0437093
630.609	0.0239963
640.251	0.0190171
649.893	0.0191886
659.536	0.0200032
669.178	0.0229235
678.82	0.0254514
688.463	0.0281136
698.105	0.033247
707.747	0.0393857
717.39	0.0479349
727.032	0.0592617
736.674	0.0749882
746.317	0.094647
755.959	0.115766
765.601	0.137741
775.244	0.166255
784.886	0.196957
794.528	0.228358
804.171	0.259495
813.813	0.283856
823.455	0.30112
833.098	0.297632
842.74	0.265208
852.382	0.258864
862.025	0.216254
871.667	0.162699
881.309	0.126671
890.952	0.167462
900.594	0.257087
910.236	0.243621
919.879	0.196539
929.521	0.164268
939.163	0.138134
948.806	0.114453
958.448	0.0916132
968.09	0.0686312
977.733	0.0494546
987.375	0.0340777
997.017	0.0253901
1006.66	0.0210657
1016.3	0.0185607
1025.94	0.0163991
1035.59	0.0149406
1045.23	0.0131081
1054.87	0.0118178
1064.51	0.0105033
1074.16	0.0097567
1083.8	0.00932471
1093.44	0.00891508
1103.08	0.00811129
1112.72	0.00768277
1122.37	0.0075119
1132.01	0.00714435
1141.65	0.00646596
1151.3	0.00567288
1160.94	0.00514423
1170.58	0.00452986
1180.22	0.00406327
1189.86	0.00379495
1199.51	0.00367003
1209.15	0.00353029
1218.79	0.00357698
1228.43	0.00319946
1238.08	0.00347002
1247.72	0.003678
1257.36	0.00373123
1267	0.00362667
1276.64	0.00413298
1286.29	0.00357852
1295.93	0.00368039
1305.57	0.00407878
1315.21	0.00472796
1324.86	0.00442917
1334.5	0.00481035
1344.14	0.00492212
1353.78	0.00554846
1363.43	0.00613072
1373.07	0.00697199
1382.71	0.00756646
1392.35	0.00857599
1401.99	0.00935896
1411.64	0.00942827
1421.28	0.00981819
1430.92	0.00969435
1440.57	0.00976745
1450.21	0.0102259
1459.85	0.00979596
1469.49	0.0102334
1479.13	0.00960968
1488.78	0.0096465
1498.42	0.00988393
1508.06	0.00926052
1517.7	0.00881127
1527.35	0.00894866
1536.99	0.009226
1546.63	0.00950915
1556.27	0.00977027
1565.91	0.00997083
1575.56	0.00958233
1585.2	0.00979994
1594.84	0.0100334
1604.48	0.0103631
1614.13	0.0103368
1623.77	0.0102355
1633.41	0.0104932
1643.05	0.0107239
1652.7	0.0101721
1662.34	0.0109641
1671.98	0.0111786
1681.62	0.0107616
1691.27	0.0106664
1700.91	0.00989528
1710.55	0.00904486
1720.19	0.00959077
1729.84	0.00933569
1739.48	0.00893764
1749.12	0.00900913
1758.76	0.00879848
1768.4	0.00853011
1778.05	0.00843069
1787.69	0.00863999
1797.33	0.00856261
1806.97	0.00779552
1816.62	0.00758457
1826.26	0.00836819
1835.9	0.00793284
1845.54	0.00815915
1855.18	0.00877438
1864.83	0.00791387
1874.47	0.00796444
1884.11	0.00742769
1893.75	0.00783174
1903.4	0.00811488
1913.04	0.00859006
1922.68	0.00719981
1932.32	0.0076875
1941.97	0.00848918
1951.61	0.00668995
1961.25	0.00893571
1970.89	0.00752892
1980.54	0.0127496
1990.18	0.0103906
1999.82	0.0111083
2009.46	0.0109376
2019.11	0.0119315
2028.75	0.0113309
2038.39	0.0137258
2048.03	0.0147858
2057.67	0.0114229
2067.32	0.0113984
2076.96	0.0130082
2086.6	0.0129307
2096.24	0.0134048
2105.89	0.0131844
2115.53	0.0121855
2125.17	0.0115264
2134.81	0.0121027
2144.45	0.0138114
2154.1	0.00981558
2163.74	0.0164483
2173.38	0.0111738
2183.02	0.0130635
2192.67	0.0171692
2202.31	0.014682
2211.95	0.015255
2221.59	0.0180883
2231.24	0.0148723
2240.88	0.0162708
2250.52	0.0137842
2260.16	0.0157384
2269.8	0.01652
2279.45	0.0176263
2289.09	0.0167491
2298.73	0.0166203
2308.38	0.0178565
2318.02	0.017502
2327.66	0.0158343
2337.3	0.0165431
2346.94	0.0161113
2356.59	0.016364
2366.23	0.0161766
2375.87	0.016758
2385.51	0.0161478
2395.16	0.0154494
2404.8	0.0168278
2414.44	0.0165956
2424.08	0.016734
2433.72	0.0169038
2443.37	0.016543
2453.01	0.0178101
2462.65	0.0178792
2472.29	0.0165435
2481.94	0.0174268
2491.58	0.0166372
2501.22	0.0177235
2510.86	0.0176512
2520.51	0.0173914
2530.15	0.0180355
2539.79	0.017289
2549.43	0.0185286
2559.07	0.0178297
2568.72	0.0191033
2578.36	0.0187956
2588	0.0186494
2597.64	0.0186756
2607.29	0.0192938
2616.93	0.0201597
2626.57	0.0195476
2636.21	0.019954
2645.86	0.0206181
2655.5	0.0193369
2665.14	0.0197314
2674.78	0.0188353
2684.43	0.0185831
2694.07	0.018797
2703.71	0.0188876
2713.35	0.0177795
2722.99	0.0192027
2732.64	0.0194139
2742.28	0.0188315
2751.92	0.0203909
2761.56	0.02055
2771.21	0.0197369
2780.85	0.0201893
2790.49	0.0201531
2800.13	0.0205536
2809.78	0.0205501
2819.42	0.0203107
2829.06	0.0207234
2838.7	0.0210955
2848.34	0.0204664
2857.99	0.0192993
2867.63	0.020662
2877.27	0.0215783
2886.91	0.020521
2896.56	0.0222762
2906.2	0.0214305
2915.84	0.0221591
2925.48	0.02131
2935.13	0.0204992
2944.77	0.0219657
2954.41	0.0207417
2964.05	0.0213077
2973.7	0.022036
2983.34	0.022595
2992.98	0.0213831
3002.62	0.0228253
3012.26	0.0222989
3021.91	0.0217024
3031.55	0.0230731
3041.19	0.0211799
3050.83	0.0218185
3060.48	0.0235932
3070.12	0.0240598
3079.76	0.0228458
3089.4	0.0229359
3099.05	0.0223183
3108.69	0.0225084
3118.33	0.0229937
3127.97	0.0239512
3137.61	0.0244804
3147.26	0.0259538
3156.9	0.0260671
3166.54	0.0240055
3176.18	0.0248425
3185.83	0.0266116
3195.47	0.0273208
3205.11	0.0246659
3214.75	0.0259129
3224.4	0.0253248
3234.04	0.0271874
3243.68	0.0250385
3253.32	0.0254644
3262.97	0.0264513
3272.61	0.0279248
3282.25	0.0282065
3291.89	0.0268346
3301.53	0.0297265
3311.18	0.0272595
3320.82	0.0276368
3330.46	0.0279332
3340.1	0.0285738
3349.75	0.0295203
3359.39	0.0284622
3369.03	0.0300803
3378.67	0.0304027
3388.32	0.0310235
3397.96	0.0296893
3407.6	0.0298416
3417.24	0.0299305
3426.89	0.0300111
3436.53	0.0297351
3446.17	0.0292904
3455.81	0.0299659
3465.45	0.0287598
3475.1	0.0299789
3484.74	0.0301616
3494.38	0.0297805
3504.02	0.0267636
3513.67	0.026034
3523.31	0.0262676
3532.95	0.0259262
3542.59	0.0263419
3552.24	0.0274351
3561.88	0.0269409
3571.52	0.0267974
3581.16	0.0241938
3590.8	0.0257288
3600.45	0.0263317
3610.09	0.025753
3619.73	0.0241336
3629.37	0.0259226
3639.02	0.0212682
3648.66	0.0259665
3658.3	0.0237551
3667.94	0.0221331
3677.59	0.0228443
3687.23	0.0230994
3696.87	0.0235104
3706.51	0.0210875
3716.16	0.0234474
3725.8	0.02336
3735.44	0.0202803
3745.08	0.0233392
3754.72	0.024045
3764.37	0.0218608
3774.01	0.0224229
3783.65	0.0261823
3793.29	0.0228348
3802.94	0.0260573
3812.58	0.0260779
3822.22	0.0248655
3831.86	0.0237538
3841.51	0.0257654
3851.15	0.0225597
3860.79	0.0228417
3870.43	0.0221441
3880.07	0.0231481
3889.72	0.0255011
3899.36	0.0224212
3909	0.0211516
3918.64	0.0247017
3928.29	0.0238152
3937.93	0.0234217
3947.57	0.0237877
3957.21	0.0259716
3966.86	0.0272897
3976.5	0.0241219
3986.14	0.023642
3995.78	0.0241703
