Measurement: Infrared, Infrared Data Processed
Mineral: Grossular
Rruff sample: R040065
Ideal chemistry: Ca_3_Al_2_(SiO_4_)_3_
Locality: Feng Tien mine, Taiwan
Source: University of Arizona Mineral Museum
Description: Orange-brown trapezohedral crystals
Measured chemistry: (Ca_2.90_Fe^2+^_0.05_Mn_0.05_)_Σ=3_(Al_1.95_Fe^3+^_0.03_Ti_0.02_)_Σ=2_((Si_0.99_Al_0.01_)_Σ=1_O_4_)_3_
x	intensity
399.193	0
408.835	0.211579
418.477	0.292895
428.12	0.304085
437.762	0.295057
447.404	0.283841
457.047	0.246274
466.689	0.206095
476.331	0.207784
485.974	0.171141
495.616	0.144658
505.258	0.125992
514.901	0.0957328
524.543	0.0662195
534.185	0.100943
543.828	0.141842
553.47	0.0901034
563.112	0.0550495
572.755	0.0322426
582.397	0.0225611
592.039	0.0201818
601.682	0.0230786
611.324	0.0486547
620.966	0.0684884
630.609	0.0227059
640.251	0.0155328
649.893	0.0142379
659.536	0.013972
669.178	0.0157146
678.82	0.0175552
688.463	0.0197461
698.105	0.0231395
707.747	0.0272567
717.39	0.0338784
727.032	0.0429911
736.674	0.0559321
746.317	0.0741499
755.959	0.099234
765.601	0.126949
775.244	0.155813
784.886	0.190311
794.528	0.226926
804.171	0.262546
813.813	0.294244
823.455	0.319654
833.098	0.330163
842.74	0.312309
852.382	0.275246
862.025	0.268456
871.667	0.197597
881.309	0.133507
890.952	0.125789
900.594	0.249208
910.236	0.293151
919.879	0.236548
929.521	0.186034
939.163	0.150584
948.806	0.123062
958.448	0.0981658
968.09	0.0754115
977.733	0.0555896
987.375	0.0370622
997.017	0.024923
1006.66	0.01973
1016.3	0.016724
1025.94	0.0151968
1035.59	0.0143553
1045.23	0.0136478
1054.87	0.0134025
1064.51	0.0128077
1074.16	0.0122295
1083.8	0.0114012
1093.44	0.0107169
1103.08	0.00959119
1112.72	0.00826034
1122.37	0.00702015
1132.01	0.00633291
1141.65	0.00555389
1151.3	0.00491074
1160.94	0.00475816
1170.58	0.00412158
1180.22	0.00377927
1189.86	0.00350087
1199.51	0.003467
1209.15	0.00375719
1218.79	0.00345831
1228.43	0.00369672
1238.08	0.00348408
1247.72	0.00373293
1257.36	0.00375001
1267	0.00417153
1276.64	0.00429354
1286.29	0.00426587
1295.93	0.00459053
1305.57	0.00477106
1315.21	0.00550941
1324.86	0.00594167
1334.5	0.00628661
1344.14	0.00665698
1353.78	0.00708159
1363.43	0.00763486
1373.07	0.00780221
1382.71	0.00787941
1392.35	0.00779174
1401.99	0.00802319
1411.64	0.00867515
1421.28	0.00904944
1430.92	0.00929232
1440.57	0.0094344
1450.21	0.00961668
1459.85	0.0093593
1469.49	0.00871691
1479.13	0.00811076
1488.78	0.00759121
1498.42	0.00772292
1508.06	0.00786044
1517.7	0.00770496
1527.35	0.00806186
1536.99	0.0087967
1546.63	0.0100239
1556.27	0.0105851
1565.91	0.0112149
1575.56	0.0111817
1585.2	0.0119302
1594.84	0.0124093
1604.48	0.011986
1614.13	0.0117361
1623.77	0.0112672
1633.41	0.010482
1643.05	0.0100736
1652.7	0.0101561
1662.34	0.00964667
1671.98	0.00997801
1681.62	0.00965563
1691.27	0.00990484
1700.91	0.0106595
1710.55	0.00933737
1720.19	0.009622
1729.84	0.00915472
1739.48	0.00902106
1749.12	0.00899338
1758.76	0.00927389
1768.4	0.00928952
1778.05	0.00942992
1787.69	0.00921002
1797.33	0.00898479
1806.97	0.00794147
1816.62	0.00784946
1826.26	0.00921362
1835.9	0.00816576
1845.54	0.00828811
1855.18	0.00814244
1864.83	0.00817314
1874.47	0.00855161
1884.11	0.00798944
1893.75	0.00813349
1903.4	0.00754709
1913.04	0.00811097
1922.68	0.00897065
1932.32	0.00798787
1941.97	0.00779485
1951.61	0.00816181
1961.25	0.00899859
1970.89	0.0106479
1980.54	0.0104733
1990.18	0.0113063
1999.82	0.00921741
2009.46	0.0106875
2019.11	0.00838865
2028.75	0.0120449
2038.39	0.0119514
2048.03	0.0129386
2057.67	0.0134164
2067.32	0.0141715
2076.96	0.0139551
2086.6	0.0125368
2096.24	0.0119133
2105.89	0.0126351
2115.53	0.0133219
2125.17	0.0113563
2134.81	0.00998342
2144.45	0.0121713
2154.1	0.00735785
2163.74	0.0159136
2173.38	0.0112263
2183.02	0.0131281
2192.67	0.0139784
2202.31	0.0154808
2211.95	0.0148244
2221.59	0.015482
2231.24	0.0148967
2240.88	0.0168477
2250.52	0.0162811
2260.16	0.0152983
2269.8	0.0160459
2279.45	0.0169812
2289.09	0.0165318
2298.73	0.0172823
2308.38	0.0173558
2318.02	0.0174354
2327.66	0.0170826
2337.3	0.0171004
2346.94	0.0168901
2356.59	0.0171755
2366.23	0.0166577
2375.87	0.0162741
2385.51	0.0158648
2395.16	0.0157461
2404.8	0.016377
2414.44	0.0166767
2424.08	0.0172761
2433.72	0.0172581
2443.37	0.0168169
2453.01	0.0159535
2462.65	0.016972
2472.29	0.0166183
2481.94	0.0171508
2491.58	0.0175069
2501.22	0.0161013
2510.86	0.0166812
2520.51	0.0175448
2530.15	0.0177797
2539.79	0.0167965
2549.43	0.0175069
2559.07	0.0175924
2568.72	0.0184523
2578.36	0.0189799
2588	0.0198323
2597.64	0.0199544
2607.29	0.0200211
2616.93	0.0196318
2626.57	0.0197786
2636.21	0.0195552
2645.86	0.0199528
2655.5	0.0197395
2665.14	0.0190285
2674.78	0.0188689
2684.43	0.0194946
2694.07	0.0192516
2703.71	0.0182841
2713.35	0.0191792
2722.99	0.0192103
2732.64	0.0198949
2742.28	0.0193514
2751.92	0.0195945
2761.56	0.0196526
2771.21	0.0198034
2780.85	0.0198161
2790.49	0.0201088
2800.13	0.0210732
2809.78	0.0206406
2819.42	0.0196041
2829.06	0.0201493
2838.7	0.0203341
2848.34	0.0203663
2857.99	0.0196423
2867.63	0.0201976
2877.27	0.0207443
2886.91	0.0209489
2896.56	0.0211387
2906.2	0.0216067
2915.84	0.0212609
2925.48	0.0213233
2935.13	0.0213543
2944.77	0.0206472
2954.41	0.0209749
2964.05	0.0205429
2973.7	0.0221007
2983.34	0.020816
2992.98	0.0218301
3002.62	0.0220537
3012.26	0.0213289
3021.91	0.0215853
3031.55	0.0217106
3041.19	0.0222307
3050.83	0.0227342
3060.48	0.0236754
3070.12	0.0225494
3079.76	0.0221322
3089.4	0.0232497
3099.05	0.0244956
3108.69	0.0228196
3118.33	0.0236116
3127.97	0.0237629
3137.61	0.0244936
3147.26	0.0244609
3156.9	0.0229765
3166.54	0.0251633
3176.18	0.023348
3185.83	0.0240319
3195.47	0.0242825
3205.11	0.0253883
3214.75	0.0252055
3224.4	0.0256747
3234.04	0.0242071
3243.68	0.0245207
3253.32	0.0266108
3262.97	0.0259067
3272.61	0.0263684
3282.25	0.026239
3291.89	0.0251047
3301.53	0.025369
3311.18	0.0254036
3320.82	0.0263158
3330.46	0.0264091
3340.1	0.028213
3349.75	0.0257102
3359.39	0.0257009
3369.03	0.0259562
3378.67	0.0275202
3388.32	0.0263088
3397.96	0.0265597
3407.6	0.0251666
3417.24	0.0267295
3426.89	0.0246243
3436.53	0.0273251
3446.17	0.0265188
3455.81	0.0258347
3465.45	0.0251176
3475.1	0.0276544
3484.74	0.027569
3494.38	0.0272488
3504.02	0.0271211
3513.67	0.026753
3523.31	0.0277843
3532.95	0.0265087
3542.59	0.0282733
3552.24	0.0275213
3561.88	0.0278516
3571.52	0.0265769
3581.16	0.0274261
3590.8	0.0257688
3600.45	0.0280001
3610.09	0.0262059
3619.73	0.0279751
3629.37	0.0272466
3639.02	0.0273297
3648.66	0.0242754
3658.3	0.0253368
3667.94	0.0255113
3677.59	0.0245856
3687.23	0.0261957
3696.87	0.0277505
3706.51	0.0267105
3716.16	0.027011
3725.8	0.0265139
3735.44	0.0272176
3745.08	0.0242537
3754.72	0.0234401
3764.37	0.0261146
3774.01	0.0264686
3783.65	0.0271725
3793.29	0.0243097
3802.94	0.0260065
3812.58	0.0290583
3822.22	0.0268501
3831.86	0.0280544
3841.51	0.0279864
3851.15	0.0265841
3860.79	0.027977
3870.43	0.0260245
3880.07	0.0280779
3889.72	0.0266093
3899.36	0.0279326
3909	0.0247179
3918.64	0.0300899
3928.29	0.0269923
3937.93	0.0285926
3947.57	0.0266329
3957.21	0.0276636
3966.86	0.027772
3976.5	0.0280401
3986.14	0.0287708
3995.78	0.027093
