Measurement: Infrared, Infrared Data Processed
Mineral: Grunerite
Rruff sample: R070204
Ideal chemistry: [box]Fe^2+^_2_Fe^2+^_5_Si_8_O_22_(OH)_2_
Locality: Penge mine, Transvaal, South Africa
Source: California Institute of Technology
Description: Aggregate of tan colored parallel fibers. The Penge mine is the source of UICC standard for amosite
Measured chemistry: ([box]_0.98_Na_0.02_)_Σ=1_(Fe_5.24_Mg_1.59_Mn_0.08_[box]_0.03_Al_0.04_Ca_0.02_)_Σ=7_Si_8.00_O_22_(OH)_2_ ; OH estimated by difference and charge balance
x	intensity
374.123	0.0485023
383.765	0.0465595
393.407	0.0522424
403.05	0.050888
412.692	0.0739698
422.334	0.0994126
431.976	0.0790698
441.619	0.0749194
451.261	0.0838772
460.904	0.0938889
470.546	0.104434
480.188	0.0970538
489.83	0.080714
499.473	0.0800785
509.115	0.0735554
518.758	0.0577454
528.4	0.0584052
538.042	0.045462
547.684	0.0362699
557.327	0.0366713
566.969	0.0383689
576.611	0.04114
586.254	0.0471478
595.896	0.0546719
605.538	0.0628017
615.181	0.0688458
624.823	0.069327
634.466	0.0727538
644.108	0.0735597
653.75	0.0750924
663.393	0.0721944
673.035	0.0697592
682.677	0.0681165
692.319	0.0671791
701.962	0.0664797
711.604	0.0594513
721.246	0.054349
730.889	0.0520429
740.531	0.0485721
750.173	0.0462984
759.816	0.0458452
769.458	0.0490227
779.101	0.0468552
788.743	0.0389533
798.385	0.0361447
808.028	0.0346225
817.67	0.0337457
827.312	0.0328749
836.955	0.0314909
846.597	0.0294851
856.239	0.0271374
865.881	0.0254031
875.524	0.0245172
885.166	0.0255644
894.808	0.0244563
904.451	0.0223908
914.093	0.0218211
923.736	0.0243916
933.378	0.0296238
943.02	0.0387247
952.663	0.0522716
962.305	0.0728298
971.947	0.0911764
981.59	0.104874
991.232	0.141744
1000.87	0.127491
1010.52	0.0862083
1020.16	0.0683955
1029.8	0.0596487
1039.44	0.0492229
1049.09	0.0378369
1058.73	0.0297216
1068.37	0.0304135
1078.01	0.04167
1087.65	0.043605
1097.3	0.0337873
1106.94	0.0213274
1116.58	0.0186281
1126.22	0.0301213
1135.87	0.0319929
1145.51	0.0183383
1155.15	0.0106744
1164.79	0.00776496
1174.44	0.00659007
1184.08	0.00569197
1193.72	0.00522474
1203.36	0.00460784
1213.01	0.00428113
1222.65	0.00359141
1232.29	0.00317439
1241.93	0.00293118
1251.58	0.00268969
1261.22	0.00251441
1270.86	0.00254552
1280.5	0.00242799
1290.14	0.00253232
1299.79	0.00245586
1309.43	0.00243852
1319.07	0.00243751
1328.71	0.00244118
1338.36	0.00226535
1348	0.00234956
1357.64	0.00246217
1367.28	0.0024348
1376.92	0.00295591
1386.57	0.0024654
1396.21	0.00236169
1405.85	0.00265228
1415.49	0.00243904
1425.14	0.00251819
1434.78	0.00242703
1444.42	0.00258437
1454.06	0.00258213
1463.71	0.00258995
1473.35	0.00197593
1482.99	0.00226179
1492.63	0.00225366
1502.28	0.00218131
1511.92	0.00214319
1521.56	0.00196291
1531.2	0.00230543
1540.85	0.00191764
1550.49	0.00273484
1560.13	0.00213509
1569.77	0.00277857
1579.41	0.00332866
1589.06	0.00324211
1598.7	0.0033091
1608.34	0.00362721
1617.98	0.00345013
1627.63	0.00388037
1637.27	0.00393336
1646.91	0.00358294
1656.55	0.0040223
1666.19	0.00351749
1675.84	0.00289355
1685.48	0.00259852
1695.12	0.00233544
1704.77	0.00260189
1714.41	0.00240036
1724.05	0.00241627
1733.69	0.00135713
1743.33	0.00232573
1752.98	0.0025187
1762.62	0.00240096
1772.26	0.0022295
1781.9	0.00251826
1791.55	0.00243774
1801.19	0.00267815
1810.83	0.00259671
1820.47	0.00283237
1830.12	0.00259972
1839.76	0.00294429
1849.4	0.00298617
1859.04	0.00266584
1868.68	0.00209196
1878.33	0.00262232
1887.97	0.00251209
1897.61	0.00259228
1907.25	0.0023573
1916.9	0.00182627
1926.54	0.00150503
1936.18	0.00175566
1945.82	0.00126959
1955.46	0.00136173
1965.11	-0.000192644
1974.75	5.43098e-05
1984.39	-0.00141564
1994.04	-0.00180699
2003.68	-0.00141687
2013.32	-0.0010713
2022.96	0.000889052
2032.6	0.00071216
2042.25	0.00204559
2051.89	0.00249386
2061.53	0.00242524
2071.17	0.00288645
2080.82	0.00272588
2090.46	0.0022149
2100.1	0.00265379
2109.74	0.00239595
2119.39	0.00297668
2129.03	0.00315358
2138.67	0.00309768
2148.31	0.00410077
2157.95	0.00347635
2167.6	0.00335197
2177.24	0.00397297
2186.88	0.00240357
2196.52	0.0032786
2206.17	0.003548
2215.81	0.004487
2225.45	0.00458906
2235.09	0.00372067
2244.74	0.00282275
2254.38	0.00301686
2264.02	0.00343912
2273.66	0.00409098
2283.3	0.00397972
2292.95	0.00386411
2302.59	0.00347045
2312.23	0.00408321
2321.87	0.00363571
2331.52	0.00319735
2341.16	0.00349714
2350.8	0.0035353
2360.44	0.00346238
2370.09	0.00338851
2379.73	0.0041226
2389.37	0.00429948
2399.01	0.00438652
2408.66	0.00427248
2418.3	0.00389776
2427.94	0.00461166
2437.58	0.00421342
2447.22	0.00409333
2456.87	0.00444898
2466.51	0.004571
2476.15	0.00418603
2485.79	0.00458804
2495.44	0.00492657
2505.08	0.00442877
2514.72	0.00531885
2524.36	0.00463378
2534.01	0.00478504
2543.65	0.00477744
2553.29	0.00445913
2562.93	0.00460745
2572.57	0.0046811
2582.22	0.00495747
2591.86	0.00414182
2601.5	0.00466025
2611.14	0.00482184
2620.79	0.00481077
2630.43	0.00495679
2640.07	0.00459373
2649.71	0.00505336
2659.36	0.00452113
2669	0.00450663
2678.64	0.00473784
2688.28	0.00504783
2697.93	0.00478864
2707.57	0.00512585
2717.21	0.00515595
2726.85	0.00507734
2736.49	0.00527014
2746.14	0.00520993
2755.78	0.0051809
2765.42	0.0048928
2775.06	0.00514356
2784.71	0.00523232
2794.35	0.00541941
2803.99	0.00573211
2813.63	0.0051159
2823.28	0.00571862
2832.92	0.00618854
2842.56	0.00634716
2852.2	0.00665455
2861.84	0.00680309
2871.49	0.00649906
2881.13	0.00658432
2890.77	0.00673279
2900.41	0.00662859
2910.06	0.00769994
2919.7	0.00773529
2929.34	0.00828476
2938.98	0.00689736
2948.62	0.00735925
2958.27	0.00750763
2967.91	0.00671572
2977.55	0.00656449
2987.2	0.00658983
2996.84	0.00678776
3006.48	0.00647599
3016.12	0.00736579
3025.76	0.00679473
3035.41	0.00670932
3045.05	0.00673054
3054.69	0.00704313
3064.33	0.00711641
3073.98	0.00761647
3083.62	0.00785679
3093.26	0.00755696
3102.9	0.00828904
3112.55	0.00825928
3122.19	0.00724379
3131.83	0.00807817
3141.47	0.00776204
3151.11	0.00782713
3160.76	0.00825097
3170.4	0.00802221
3180.04	0.00863908
3189.68	0.00867517
3199.33	0.00815512
3208.97	0.00868974
3218.61	0.00861015
3228.25	0.00839951
3237.9	0.00966493
3247.54	0.00971647
3257.18	0.00916699
3266.82	0.00974681
3276.47	0.00960266
3286.11	0.00932446
3295.75	0.0102987
3305.39	0.00928779
3315.03	0.00971116
3324.68	0.00940196
3334.32	0.0101058
3343.96	0.00975831
3353.6	0.00978052
3363.25	0.0105318
3372.89	0.01052
3382.53	0.0102492
3392.17	0.0103211
3401.82	0.00948885
3411.46	0.0103894
3421.1	0.0098628
3430.74	0.00966633
3440.39	0.0102956
3450.03	0.00957121
3459.67	0.00987406
3469.31	0.0100885
3478.95	0.00985588
3488.6	0.0100668
3498.24	0.0104808
3507.88	0.0107092
3517.52	0.0107337
3527.17	0.0097424
3536.81	0.00978601
3546.45	0.0106529
3556.09	0.00910127
3565.74	0.0101499
3575.38	0.00998478
3585.02	0.00982509
3594.66	0.0101951
3604.3	0.00824998
3613.95	0.0107121
3623.59	0.00815641
3633.23	0.00998109
3642.87	0.00831338
3652.52	0.00882831
3662.16	0.00728298
3671.8	0.00719314
3681.44	0.00677563
3691.09	0.00794276
3700.73	0.0077188
3710.37	0.00753115
3720.01	0.00700828
3729.66	0.00796553
3739.3	0.00755662
3748.94	0.00669142
3758.58	0.00687983
3768.22	0.00847293
3777.87	0.00712306
3787.51	0.00807459
3797.15	0.00808111
3806.79	0.00780442
3816.44	0.00677977
3826.08	0.00846043
3835.72	0.00668718
3845.36	0.00844711
3855.01	0.0060538
3864.65	0.00699399
3874.29	0.00833984
3883.93	0.00633379
3893.57	0.00820412
3903.22	0.00752359
3912.86	0.00789864
3922.5	0.00683378
3932.14	0.00755069
3941.79	0.00735171
3951.43	0.00823012
3961.07	0.00881539
3970.71	0.00799018
3980.36	0.00901116
3990	0.00828083
3999.64	0.00825957
