Measurement: Infrared, Infrared Data Processed
Mineral: Hausmannite
Rruff sample: R040090
Ideal chemistry: Mn^2+^Mn^3+^_2_O_4_
Locality: Ã–hrenstock, Ilmenau, near Thuringia, Germany
Source: University of Arizona Mineral Museum
Description: Mass of black octahedral crystals
Measured chemistry: (Mn^2+^_0.71_Zn_0.28_)Mn^3+^_2.00_O_4_
x	intensity
399.193	0
408.835	0.363947
418.477	0.348106
428.12	0.34048
437.762	0.333386
447.404	0.339455
457.047	0.350791
466.689	0.37321
476.331	0.38434
485.974	0.364459
495.616	0.341056
505.258	0.317165
514.901	0.288748
524.543	0.259482
534.185	0.22917
543.828	0.197109
553.47	0.164492
563.112	0.143972
572.755	0.190692
582.397	0.298778
592.039	0.394925
601.682	0.367993
611.324	0.313298
620.966	0.267896
630.609	0.233309
640.251	0.20397
649.893	0.179151
659.536	0.1582
669.178	0.138262
678.82	0.118335
688.463	0.093387
698.105	0.0688178
707.747	0.0561187
717.39	0.0520983
727.032	0.049824
736.674	0.0466095
746.317	0.0442166
755.959	0.0421922
765.601	0.0404544
775.244	0.0373983
784.886	0.0337753
794.528	0.0318687
804.171	0.031571
813.813	0.0322644
823.455	0.0340068
833.098	0.0368093
842.74	0.0393779
852.382	0.041264
862.025	0.0445368
871.667	0.0460889
881.309	0.0421568
890.952	0.0438105
900.594	0.0458121
910.236	0.0484908
919.879	0.0525982
929.521	0.0581016
939.163	0.0638866
948.806	0.0686127
958.448	0.0701309
968.09	0.0684628
977.733	0.0653548
987.375	0.0629072
997.017	0.0612329
1006.66	0.0609648
1016.3	0.0620853
1025.94	0.0625769
1035.59	0.0634202
1045.23	0.0650018
1054.87	0.0655522
1064.51	0.0662191
1074.16	0.0666103
1083.8	0.0668702
1093.44	0.0679462
1103.08	0.0687052
1112.72	0.0693977
1122.37	0.0702777
1132.01	0.0725667
1141.65	0.0738815
1151.3	0.0751312
1160.94	0.0764705
1170.58	0.0776194
1180.22	0.079294
1189.86	0.0809268
1199.51	0.0822334
1209.15	0.083676
1218.79	0.0849933
1228.43	0.0865869
1238.08	0.0879837
1247.72	0.0898578
1257.36	0.0913469
1267	0.0932849
1276.64	0.095135
1286.29	0.0966887
1295.93	0.0986448
1305.57	0.100813
1315.21	0.102579
1324.86	0.104741
1334.5	0.106925
1344.14	0.108878
1353.78	0.111297
1363.43	0.113664
1373.07	0.117323
1382.71	0.121897
1392.35	0.126778
1401.99	0.134227
1411.64	0.143337
1421.28	0.150564
1430.92	0.156251
1440.57	0.158659
1450.21	0.157264
1459.85	0.153165
1469.49	0.147916
1479.13	0.142437
1488.78	0.137853
1498.42	0.133772
1508.06	0.131799
1517.7	0.132013
1527.35	0.13334
1536.99	0.134591
1546.63	0.136411
1556.27	0.137565
1565.91	0.13826
1575.56	0.138715
1585.2	0.138783
1594.84	0.139223
1604.48	0.139012
1614.13	0.139737
1623.77	0.140335
1633.41	0.141078
1643.05	0.141855
1652.7	0.14235
1662.34	0.142906
1671.98	0.143554
1681.62	0.144408
1691.27	0.145372
1700.91	0.14667
1710.55	0.147769
1720.19	0.148462
1729.84	0.149814
1739.48	0.150055
1749.12	0.151024
1758.76	0.151994
1768.4	0.153363
1778.05	0.154404
1787.69	0.15546
1797.33	0.157112
1806.97	0.157698
1816.62	0.158231
1826.26	0.160164
1835.9	0.160476
1845.54	0.162277
1855.18	0.162855
1864.83	0.163692
1874.47	0.165201
1884.11	0.165762
1893.75	0.166781
1903.4	0.167473
1913.04	0.169127
1922.68	0.169406
1932.32	0.171114
1941.97	0.171298
1951.61	0.171984
1961.25	0.174408
1970.89	0.172898
1980.54	0.175611
1990.18	0.17528
1999.82	0.175224
2009.46	0.177639
2019.11	0.175929
2028.75	0.179252
2038.39	0.180336
2048.03	0.181552
2057.67	0.181501
2067.32	0.182018
2076.96	0.185432
2086.6	0.182928
2096.24	0.184824
2105.89	0.187194
2115.53	0.186528
2125.17	0.18703
2134.81	0.186006
2144.45	0.186668
2154.1	0.184737
2163.74	0.192884
2173.38	0.19131
2183.02	0.191088
2192.67	0.193974
2202.31	0.196321
2211.95	0.195612
2221.59	0.197371
2231.24	0.198907
2240.88	0.19735
2250.52	0.200086
2260.16	0.198659
2269.8	0.199682
2279.45	0.201896
2289.09	0.202261
2298.73	0.202197
2308.38	0.202993
2318.02	0.20366
2327.66	0.203073
2337.3	0.20409
2346.94	0.204027
2356.59	0.205276
2366.23	0.206235
2375.87	0.206311
2385.51	0.205434
2395.16	0.207506
2404.8	0.208095
2414.44	0.209461
2424.08	0.20996
2433.72	0.210783
2443.37	0.21241
2453.01	0.212857
2462.65	0.21367
2472.29	0.214328
2481.94	0.21479
2491.58	0.214899
2501.22	0.21526
2510.86	0.216621
2520.51	0.216424
2530.15	0.217168
2539.79	0.218513
2549.43	0.21913
2559.07	0.220014
2568.72	0.221279
2578.36	0.221086
2588	0.221269
2597.64	0.223165
2607.29	0.223468
2616.93	0.224375
2626.57	0.225166
2636.21	0.226783
2645.86	0.22643
2655.5	0.227084
2665.14	0.227693
2674.78	0.227896
2684.43	0.227774
2694.07	0.229249
2703.71	0.2294
2713.35	0.229975
2722.99	0.230926
2732.64	0.232004
2742.28	0.231897
2751.92	0.232874
2761.56	0.233446
2771.21	0.234608
2780.85	0.235239
2790.49	0.236512
2800.13	0.236337
2809.78	0.237563
2819.42	0.237994
2829.06	0.238202
2838.7	0.238949
2848.34	0.239585
2857.99	0.23964
2867.63	0.240199
2877.27	0.242301
2886.91	0.242746
2896.56	0.243563
2906.2	0.243791
2915.84	0.244597
2925.48	0.244999
2935.13	0.24496
2944.77	0.246186
2954.41	0.246931
2964.05	0.248147
2973.7	0.248257
2983.34	0.247905
2992.98	0.249567
3002.62	0.249922
3012.26	0.25037
3021.91	0.251441
3031.55	0.252864
3041.19	0.252868
3050.83	0.254282
3060.48	0.254178
3070.12	0.254385
3079.76	0.256451
3089.4	0.257393
3099.05	0.257252
3108.69	0.258287
3118.33	0.258613
3127.97	0.258602
3137.61	0.260958
3147.26	0.258962
3156.9	0.260828
3166.54	0.263036
3176.18	0.263316
3185.83	0.263384
3195.47	0.263277
3205.11	0.263738
3214.75	0.264015
3224.4	0.267169
3234.04	0.265724
3243.68	0.267623
3253.32	0.266437
3262.97	0.267678
3272.61	0.269636
3282.25	0.268873
3291.89	0.268774
3301.53	0.26911
3311.18	0.269564
3320.82	0.270162
3330.46	0.270898
3340.1	0.271895
3349.75	0.271926
3359.39	0.272022
3369.03	0.27385
3378.67	0.273888
3388.32	0.273804
3397.96	0.274421
3407.6	0.273916
3417.24	0.274758
3426.89	0.275354
3436.53	0.273745
3446.17	0.273137
3455.81	0.27473
3465.45	0.274684
3475.1	0.274828
3484.74	0.275379
3494.38	0.275815
3504.02	0.276045
3513.67	0.277529
3523.31	0.276992
3532.95	0.275263
3542.59	0.275684
3552.24	0.27583
3561.88	0.275025
3571.52	0.277047
3581.16	0.277771
3590.8	0.276644
3600.45	0.27776
3610.09	0.279121
3619.73	0.278883
3629.37	0.279993
3639.02	0.280672
3648.66	0.282518
3658.3	0.280959
3667.94	0.281922
3677.59	0.28223
3687.23	0.284057
3696.87	0.284333
3706.51	0.285604
3716.16	0.287917
3725.8	0.285323
3735.44	0.287739
3745.08	0.289881
3754.72	0.291312
3764.37	0.289814
3774.01	0.292081
3783.65	0.291845
3793.29	0.295204
3802.94	0.290036
3812.58	0.292862
3822.22	0.293451
3831.86	0.294527
3841.51	0.294795
3851.15	0.294837
3860.79	0.292785
3870.43	0.298538
3880.07	0.297675
3889.72	0.297938
3899.36	0.301342
3909	0.30167
3918.64	0.299775
3928.29	0.298831
3937.93	0.301725
3947.57	0.303285
3957.21	0.302367
3966.86	0.302661
3976.5	0.305031
3986.14	0.305926
3995.78	0.30762
