Measurement: Infrared, Infrared Data Processed
Mineral: Hedenbergite
Rruff sample: R050030
Ideal chemistry: CaFe^2+^Si_2_O_6_
Locality: Heroult, Ontario, Canada
Source: University of Arizona Mineral Museum
Description: Green fragments
Measured chemistry: (Ca_.993_Na_.007_)(Fe_.860_Mn_.111_Mg_.029_)(Si_.993_Al_.007_)_2_O_6_
x	intensity
399.193	0
408.835	0.133909
418.477	0.159457
428.12	0.217556
437.762	0.279853
447.404	0.312441
457.047	0.310685
466.689	0.266372
476.331	0.221354
485.974	0.232453
495.616	0.220517
505.258	0.208288
514.901	0.180307
524.543	0.146485
534.185	0.114998
543.828	0.0872251
553.47	0.0619079
563.112	0.0491121
572.755	0.0482466
582.397	0.0447258
592.039	0.0453103
601.682	0.0527515
611.324	0.0757172
620.966	0.109132
630.609	0.0917587
640.251	0.0511442
649.893	0.0407387
659.536	0.0552098
669.178	0.0759083
678.82	0.0427307
688.463	0.0352009
698.105	0.0340123
707.747	0.0339446
717.39	0.0360932
727.032	0.0392098
736.674	0.0442562
746.317	0.0511125
755.959	0.0587713
765.601	0.0684294
775.244	0.0819306
784.886	0.0971161
794.528	0.117769
804.171	0.14244
813.813	0.174638
823.455	0.21847
833.098	0.272828
842.74	0.333194
852.382	0.367365
862.025	0.36043
871.667	0.332298
881.309	0.295194
890.952	0.273326
900.594	0.264199
910.236	0.252392
919.879	0.212737
929.521	0.181965
939.163	0.219756
948.806	0.282098
958.448	0.282928
968.09	0.227772
977.733	0.189016
987.375	0.166198
997.017	0.147332
1006.66	0.14836
1016.3	0.16961
1025.94	0.200838
1035.59	0.237173
1045.23	0.267417
1054.87	0.275961
1064.51	0.253113
1074.16	0.205483
1083.8	0.160548
1093.44	0.124479
1103.08	0.0932188
1112.72	0.0644642
1122.37	0.0450219
1132.01	0.0309593
1141.65	0.0227601
1151.3	0.01878
1160.94	0.0165615
1170.58	0.0149544
1180.22	0.0133654
1189.86	0.0124659
1199.51	0.0113312
1209.15	0.00995215
1218.79	0.00911014
1228.43	0.00862168
1238.08	0.00845983
1247.72	0.0084163
1257.36	0.00801656
1267	0.00788738
1276.64	0.00832663
1286.29	0.00812473
1295.93	0.00867223
1305.57	0.00890288
1315.21	0.00977883
1324.86	0.00993591
1334.5	0.0103432
1344.14	0.0115857
1353.78	0.0126548
1363.43	0.0138591
1373.07	0.0153519
1382.71	0.0174465
1392.35	0.020578
1401.99	0.0253566
1411.64	0.0305166
1421.28	0.0344248
1430.92	0.0363538
1440.57	0.0372554
1450.21	0.0374666
1459.85	0.0363531
1469.49	0.0340519
1479.13	0.0312012
1488.78	0.0284663
1498.42	0.0260689
1508.06	0.0234965
1517.7	0.0217509
1527.35	0.0209317
1536.99	0.0199605
1546.63	0.0198896
1556.27	0.0192231
1565.91	0.0199369
1575.56	0.0197024
1585.2	0.019851
1594.84	0.0196261
1604.48	0.0189658
1614.13	0.017927
1623.77	0.0173386
1633.41	0.0169145
1643.05	0.0159919
1652.7	0.0154558
1662.34	0.0152165
1671.98	0.0140971
1681.62	0.0135733
1691.27	0.0131388
1700.91	0.012725
1710.55	0.0124101
1720.19	0.0119769
1729.84	0.0125219
1739.48	0.0117882
1749.12	0.0122245
1758.76	0.0121325
1768.4	0.0120924
1778.05	0.0120803
1787.69	0.012886
1797.33	0.0128411
1806.97	0.0124451
1816.62	0.0123012
1826.26	0.0132126
1835.9	0.0122483
1845.54	0.0125051
1855.18	0.0130134
1864.83	0.0120356
1874.47	0.0132855
1884.11	0.012412
1893.75	0.0119608
1903.4	0.0123893
1913.04	0.0117543
1922.68	0.0112722
1932.32	0.0104283
1941.97	0.0107852
1951.61	0.0112551
1961.25	0.0120836
1970.89	0.00994296
1980.54	0.0146854
1990.18	0.0124613
1999.82	0.0118768
2009.46	0.011437
2019.11	0.0113137
2028.75	0.00895088
2038.39	0.0130011
2048.03	0.0121853
2057.67	0.0110889
2067.32	0.0118587
2076.96	0.0124015
2086.6	0.012349
2096.24	0.0115665
2105.89	0.0125182
2115.53	0.0116457
2125.17	0.0108887
2134.81	0.0100441
2144.45	0.00891429
2154.1	0.00431599
2163.74	0.0114977
2173.38	0.0137085
2183.02	0.0101946
2192.67	0.0140575
2202.31	0.0146252
2211.95	0.0156953
2221.59	0.0167032
2231.24	0.0188148
2240.88	0.0180975
2250.52	0.0169371
2260.16	0.0191671
2269.8	0.0206721
2279.45	0.0200714
2289.09	0.0213093
2298.73	0.021036
2308.38	0.0225197
2318.02	0.021577
2327.66	0.0213659
2337.3	0.0208209
2346.94	0.0214904
2356.59	0.0214185
2366.23	0.0210998
2375.87	0.0215198
2385.51	0.0218971
2395.16	0.0211785
2404.8	0.0208855
2414.44	0.0219364
2424.08	0.0212189
2433.72	0.0220538
2443.37	0.0224674
2453.01	0.0229624
2462.65	0.0214666
2472.29	0.0223407
2481.94	0.0228077
2491.58	0.0222384
2501.22	0.023109
2510.86	0.0226988
2520.51	0.0237846
2530.15	0.022926
2539.79	0.024185
2549.43	0.0244736
2559.07	0.0239906
2568.72	0.0249864
2578.36	0.0236011
2588	0.0250642
2597.64	0.0243396
2607.29	0.0243974
2616.93	0.0250094
2626.57	0.0257594
2636.21	0.0257624
2645.86	0.0255056
2655.5	0.0252534
2665.14	0.0251146
2674.78	0.0250643
2684.43	0.0252914
2694.07	0.0251366
2703.71	0.02555
2713.35	0.0252614
2722.99	0.0260607
2732.64	0.0256779
2742.28	0.0254069
2751.92	0.0266131
2761.56	0.0261389
2771.21	0.0269763
2780.85	0.027493
2790.49	0.0265894
2800.13	0.0273199
2809.78	0.0274785
2819.42	0.0282323
2829.06	0.0284797
2838.7	0.0274316
2848.34	0.0284799
2857.99	0.0277494
2867.63	0.0284463
2877.27	0.0289607
2886.91	0.0295844
2896.56	0.0295199
2906.2	0.029508
2915.84	0.0296049
2925.48	0.0312071
2935.13	0.0292936
2944.77	0.0301329
2954.41	0.0292235
2964.05	0.0304191
2973.7	0.0307995
2983.34	0.0316287
2992.98	0.0298388
3002.62	0.0305964
3012.26	0.030968
3021.91	0.0302352
3031.55	0.0311996
3041.19	0.0313346
3050.83	0.0308835
3060.48	0.0321965
3070.12	0.0319411
3079.76	0.0326179
3089.4	0.0331021
3099.05	0.0323938
3108.69	0.0328273
3118.33	0.0322003
3127.97	0.0324032
3137.61	0.0344506
3147.26	0.0345173
3156.9	0.0354178
3166.54	0.0348359
3176.18	0.034743
3185.83	0.0355096
3195.47	0.0351879
3205.11	0.0355269
3214.75	0.0357584
3224.4	0.0351407
3234.04	0.0358175
3243.68	0.0361012
3253.32	0.0364301
3262.97	0.0380754
3272.61	0.0361357
3282.25	0.0378633
3291.89	0.036741
3301.53	0.0383799
3311.18	0.0377071
3320.82	0.039015
3330.46	0.0373161
3340.1	0.0402144
3349.75	0.0376287
3359.39	0.0375649
3369.03	0.0380706
3378.67	0.0400855
3388.32	0.0393618
3397.96	0.0398376
3407.6	0.0378066
3417.24	0.0373906
3426.89	0.0365177
3436.53	0.0384893
3446.17	0.0387518
3455.81	0.0380298
3465.45	0.0381043
3475.1	0.03939
3484.74	0.0365437
3494.38	0.037185
3504.02	0.0370009
3513.67	0.0364628
3523.31	0.0383818
3532.95	0.0367504
3542.59	0.0349105
3552.24	0.0358203
3561.88	0.0370347
3571.52	0.0339256
3581.16	0.0347898
3590.8	0.0344767
3600.45	0.0357257
3610.09	0.0331891
3619.73	0.033525
3629.37	0.0304979
3639.02	0.034495
3648.66	0.0334745
3658.3	0.0337436
3667.94	0.031346
3677.59	0.0309738
3687.23	0.0329982
3696.87	0.0314733
3706.51	0.0306709
3716.16	0.0335855
3725.8	0.0280958
3735.44	0.0304702
3745.08	0.0289793
3754.72	0.0316159
3764.37	0.0319905
3774.01	0.0319291
3783.65	0.0344812
3793.29	0.0339406
3802.94	0.0337151
3812.58	0.0336857
3822.22	0.0329764
3831.86	0.0348954
3841.51	0.0341931
3851.15	0.0322184
3860.79	0.0334802
3870.43	0.0334821
3880.07	0.032077
3889.72	0.0343718
3899.36	0.032951
3909	0.0352275
3918.64	0.0335751
3928.29	0.0319806
3937.93	0.0335003
3947.57	0.0333038
3957.21	0.0360177
3966.86	0.0346184
3976.5	0.0356715
3986.14	0.0386619
3995.78	0.0380649
