Measurement: Infrared, Infrared Data Processed
Mineral: Jamesonite
Rruff sample: R050431
Ideal chemistry: Pb^2+^_4_Fe^2+^Sb^3+^_6_S^2-^_14_
Locality: Trinacria mine, Lake Poopo, Oruro, Bolivia
Source: University of Arizona Mineral Museum
Description: Aggregate of black coarse prismatic crystals, intimately mixed with sphalerite
Measured chemistry: lighter phase: (Pb_3.70_Zn_0.30_)_Σ=4_(Fe_0.97_Cu_0.03_)_Σ=1_Sb_6.00_S_14.00_ ; darker phase: (Zn_0.81_Fe_0.17_Cu_0.02_)_Σ=1_S_1.00_
x	intensity
399.193	0.138013
408.835	0.155432
418.477	0.178813
428.12	0.197745
437.762	0.216098
447.404	0.229337
457.047	0.2463
466.689	0.2655
476.331	0.277646
485.974	0.287934
495.616	0.30076
505.258	0.314012
514.901	0.32119
524.543	0.330049
534.185	0.341196
543.828	0.348927
553.47	0.359886
563.112	0.366912
572.755	0.376132
582.397	0.383809
592.039	0.39044
601.682	0.392158
611.324	0.395292
620.966	0.400436
630.609	0.404174
640.251	0.405749
649.893	0.40661
659.536	0.411344
669.178	0.415643
678.82	0.420554
688.463	0.423881
698.105	0.426886
707.747	0.432775
717.39	0.436414
727.032	0.439932
736.674	0.443566
746.317	0.448512
755.959	0.452248
765.601	0.455105
775.244	0.458327
784.886	0.462384
794.528	0.466255
804.171	0.470367
813.813	0.472657
823.455	0.477749
833.098	0.480887
842.74	0.485199
852.382	0.489944
862.025	0.494037
871.667	0.500447
881.309	0.503153
890.952	0.507246
900.594	0.511852
910.236	0.517335
919.879	0.522921
929.521	0.527081
939.163	0.531937
948.806	0.535815
958.448	0.542181
968.09	0.547311
977.733	0.550926
987.375	0.555621
997.017	0.559617
1006.66	0.56578
1016.3	0.571599
1025.94	0.57471
1035.59	0.581204
1045.23	0.584889
1054.87	0.586903
1064.51	0.590353
1074.16	0.592082
1083.8	0.592926
1093.44	0.595341
1103.08	0.597139
1112.72	0.598574
1122.37	0.600853
1132.01	0.603931
1141.65	0.610157
1151.3	0.611794
1160.94	0.612508
1170.58	0.612121
1180.22	0.612141
1189.86	0.613469
1199.51	0.615095
1209.15	0.616093
1218.79	0.616524
1228.43	0.618361
1238.08	0.620779
1247.72	0.622734
1257.36	0.624464
1267	0.625101
1276.64	0.628385
1286.29	0.631564
1295.93	0.634712
1305.57	0.637761
1315.21	0.639838
1324.86	0.643259
1334.5	0.647223
1344.14	0.650327
1353.78	0.654087
1363.43	0.65793
1373.07	0.661372
1382.71	0.663964
1392.35	0.665668
1401.99	0.669774
1411.64	0.673891
1421.28	0.677442
1430.92	0.679937
1440.57	0.684557
1450.21	0.687532
1459.85	0.690158
1469.49	0.689468
1479.13	0.689945
1488.78	0.692394
1498.42	0.695785
1508.06	0.698937
1517.7	0.701048
1527.35	0.70461
1536.99	0.70811
1546.63	0.711448
1556.27	0.713052
1565.91	0.715914
1575.56	0.719594
1585.2	0.721984
1594.84	0.724519
1604.48	0.727187
1614.13	0.730261
1623.77	0.732058
1633.41	0.734968
1643.05	0.736453
1652.7	0.73786
1662.34	0.740856
1671.98	0.744025
1681.62	0.746175
1691.27	0.748012
1700.91	0.750829
1710.55	0.753632
1720.19	0.75585
1729.84	0.758799
1739.48	0.760589
1749.12	0.760507
1758.76	0.761852
1768.4	0.764615
1778.05	0.765166
1787.69	0.766831
1797.33	0.767865
1806.97	0.770356
1816.62	0.773073
1826.26	0.772943
1835.9	0.775517
1845.54	0.777202
1855.18	0.780103
1864.83	0.779891
1874.47	0.781357
1884.11	0.785654
1893.75	0.783456
1903.4	0.787168
1913.04	0.78779
1922.68	0.78912
1932.32	0.786338
1941.97	0.780486
1951.61	0.784062
1961.25	0.776878
1970.89	0.772075
1980.54	0.780427
1990.18	0.784043
1999.82	0.787132
2009.46	0.780211
2019.11	0.784069
2028.75	0.787816
2038.39	0.78673
2048.03	0.802152
2057.67	0.814147
2067.32	0.81509
2076.96	0.823056
2086.6	0.829186
2096.24	0.827506
2105.89	0.832036
2115.53	0.839274
2125.17	0.83765
2134.81	0.831854
2144.45	0.828622
2154.1	0.810369
2163.74	0.825943
2173.38	0.824039
2183.02	0.828552
2192.67	0.83537
2202.31	0.840589
2211.95	0.848683
2221.59	0.850131
2231.24	0.860828
2240.88	0.864888
2250.52	0.866198
2260.16	0.876308
2269.8	0.879669
2279.45	0.885986
2289.09	0.891515
2298.73	0.894822
2308.38	0.901077
2318.02	0.903183
2327.66	0.910014
2337.3	0.912098
2346.94	0.914766
2356.59	0.916919
2366.23	0.917747
2375.87	0.920681
2385.51	0.921069
2395.16	0.922111
2404.8	0.925181
2414.44	0.928965
2424.08	0.930129
2433.72	0.93573
2443.37	0.935451
2453.01	0.936604
2462.65	0.941047
2472.29	0.943335
2481.94	0.945425
2491.58	0.945996
2501.22	0.949805
2510.86	0.956986
2520.51	0.951942
2530.15	0.959899
2539.79	0.962373
2549.43	0.963213
2559.07	0.96645
2568.72	0.970499
2578.36	0.971813
2588	0.975994
2597.64	0.977098
2607.29	0.983451
2616.93	0.984584
2626.57	0.990484
2636.21	0.992305
2645.86	0.995533
2655.5	1.00015
2665.14	1.00074
2674.78	1.00302
2684.43	1.00632
2694.07	1.00839
2703.71	1.01094
2713.35	1.01401
2722.99	1.01353
2732.64	1.01869
2742.28	1.02106
2751.92	1.02035
2761.56	1.02362
2771.21	1.02655
2780.85	1.02919
2790.49	1.03258
2800.13	1.03367
2809.78	1.03799
2819.42	1.03791
2829.06	1.04258
2838.7	1.0452
2848.34	1.05008
2857.99	1.04841
2867.63	1.05286
2877.27	1.05504
2886.91	1.05598
2896.56	1.05974
2906.2	1.06461
2915.84	1.06395
2925.48	1.06157
2935.13	1.06539
2944.77	1.06532
2954.41	1.06767
2964.05	1.06465
2973.7	1.06909
2983.34	1.07002
2992.98	1.07464
3002.62	1.07177
3012.26	1.07843
3021.91	1.07957
3031.55	1.0818
3041.19	1.08481
3050.83	1.08828
3060.48	1.08699
3070.12	1.09363
3079.76	1.09585
3089.4	1.09751
3099.05	1.09806
3108.69	1.10029
3118.33	1.10248
3127.97	1.10902
3137.61	1.1129
3147.26	1.11186
3156.9	1.11278
3166.54	1.11634
3176.18	1.1166
3185.83	1.11699
3195.47	1.12259
3205.11	1.12674
3214.75	1.12584
3224.4	1.12781
3234.04	1.1317
3243.68	1.13198
3253.32	1.1341
3262.97	1.13709
3272.61	1.14394
3282.25	1.14345
3291.89	1.14821
3301.53	1.14676
3311.18	1.14855
3320.82	1.15101
3330.46	1.15202
3340.1	1.15896
3349.75	1.16028
3359.39	1.16329
3369.03	1.16314
3378.67	1.16255
3388.32	1.1626
3397.96	1.16668
3407.6	1.17136
3417.24	1.17352
3426.89	1.17701
3436.53	1.17143
3446.17	1.17575
3455.81	1.17947
3465.45	1.18745
3475.1	1.17776
3484.74	1.19108
3494.38	1.19443
3504.02	1.18991
3513.67	1.19411
3523.31	1.19305
3532.95	1.18852
3542.59	1.19393
3552.24	1.20381
3561.88	1.20032
3571.52	1.20467
3581.16	1.20013
3590.8	1.21055
3600.45	1.20925
3610.09	1.20811
3619.73	1.21256
3629.37	1.21379
3639.02	1.21902
3648.66	1.22524
3658.3	1.22402
3667.94	1.23125
3677.59	1.23097
3687.23	1.23072
3696.87	1.2325
3706.51	1.23935
3716.16	1.23564
3725.8	1.24497
3735.44	1.24642
3745.08	1.24947
3754.72	1.24946
3764.37	1.25909
3774.01	1.25625
3783.65	1.2586
3793.29	1.26048
3802.94	1.26445
3812.58	1.26964
3822.22	1.26073
3831.86	1.26848
3841.51	1.27837
3851.15	1.27716
3860.79	1.27776
3870.43	1.28445
3880.07	1.27949
3889.72	1.29286
3899.36	1.28547
3909	1.29424
3918.64	1.29475
3928.29	1.30186
3937.93	1.30196
3947.57	1.31505
3957.21	1.3062
3966.86	1.30864
3976.5	1.31604
3986.14	1.31911
3995.78	1.3235
