Measurement: Infrared, Infrared Data Processed
Mineral: Kurnakovite
Rruff sample: R050105
Ideal chemistry: MgB_3_O_3_(OH)_5_5H_2_O
Locality: Kramer deposit, Boron, Kern County, California, USA
Source: Rock Currier
Description: Tabular single crystal
Measured chemistry: MgB_3_O_3_(OH)_5_Â·5H_2_O
x	intensity
50.1401	0.0109062
52.0686	0.00362987
53.9971	0.00182467
55.9255	0.00501186
57.854	0.0102172
59.7825	0.0139537
61.7109	0.013117
63.6394	0.0150037
65.5679	0.0168482
67.4963	0.0164766
69.4248	0.0139135
71.3533	0.0141598
73.2817	0.0146189
75.2102	0.0152545
77.1387	0.0162292
79.0671	0.0165246
80.9956	0.0169577
82.9241	0.0185287
84.8525	0.0185432
86.781	0.0204027
88.7095	0.0212588
90.6379	0.0219978
92.5664	0.0233025
94.4948	0.0243336
96.4233	0.0255526
98.3518	0.025829
100.28	0.024603
102.209	0.0237235
104.137	0.021294
106.066	0.0174967
107.994	0.0157631
109.923	0.0165657
111.851	0.0186542
113.779	0.0205697
115.708	0.0218942
117.636	0.0233197
119.565	0.0244047
121.493	0.0260608
123.422	0.0274759
125.35	0.0277912
127.279	0.0273316
129.207	0.0270739
131.136	0.0268277
133.064	0.0275349
134.993	0.028563
136.921	0.0304729
138.85	0.0321781
140.778	0.0326811
142.707	0.0333105
144.635	0.0337114
146.563	0.0329409
148.492	0.0323843
150.42	0.0313739
152.349	0.0303939
154.277	0.0290241
156.206	0.0277961
158.134	0.026637
160.063	0.0265769
161.991	0.0273833
163.92	0.0288456
165.848	0.0309605
167.777	0.0330407
169.705	0.0343943
171.633	0.0345748
173.562	0.034716
175.49	0.0354944
177.419	0.0364136
179.347	0.0372992
181.276	0.0368471
183.204	0.0354141
185.133	0.034005
187.061	0.033197
188.99	0.0331535
190.918	0.0335109
192.847	0.0341754
194.775	0.0352508
196.704	0.0360675
198.632	0.0356742
200.56	0.0341484
202.489	0.0328199
204.417	0.031416
206.346	0.0305891
208.274	0.0298436
210.203	0.0286355
212.131	0.0271323
214.06	0.02619
215.988	0.0258207
217.917	0.0258604
219.845	0.0260203
221.774	0.0258523
223.702	0.0252243
225.631	0.0245261
227.559	0.0234672
229.488	0.0225253
231.416	0.0224098
233.344	0.0226967
235.273	0.0231951
237.201	0.0236988
239.13	0.0242624
241.058	0.0247077
242.987	0.02487
244.915	0.0249037
246.844	0.0247836
248.772	0.0243884
250.701	0.0234977
252.629	0.0232231
254.558	0.0233715
256.486	0.0236112
258.414	0.0239919
260.343	0.0243174
262.271	0.024325
264.2	0.0239162
266.128	0.023307
268.057	0.0228466
269.985	0.0227359
271.914	0.0229989
273.842	0.0232154
275.771	0.0240134
277.699	0.0252856
279.628	0.0262562
281.556	0.0269518
283.485	0.027596
285.413	0.0279079
287.341	0.0283264
289.27	0.0290381
291.198	0.0297055
293.127	0.0304244
295.055	0.0310845
296.984	0.0317941
298.912	0.0329096
300.841	0.0343386
302.769	0.0358816
304.698	0.0365426
306.626	0.0364282
308.555	0.0358745
310.483	0.0348427
312.411	0.0334383
314.34	0.0320274
316.269	0.0308491
318.197	0.0301468
320.125	0.0301268
322.054	0.0305324
323.982	0.0307653
325.911	0.0310122
327.839	0.0312185
329.768	0.0308951
331.696	0.0304982
333.625	0.0303867
335.553	0.0306428
337.482	0.0312694
339.41	0.0321847
341.339	0.0328366
343.267	0.0336079
345.195	0.0347376
347.124	0.0354692
349.052	0.0363944
350.981	0.037542
352.909	0.0383241
354.838	0.038781
356.766	0.038845
358.695	0.0383751
360.623	0.0380095
362.552	0.0380031
364.48	0.0385185
366.409	0.0395188
368.337	0.0402071
370.265	0.0404032
372.194	0.0404995
374.122	0.0409731
376.051	0.0415523
377.979	0.0420842
379.908	0.0428186
381.836	0.0434078
383.765	0.043808
385.693	0.04385
387.622	0.0437445
389.55	0.0434486
391.479	0.0430826
393.407	0.0428343
395.336	0.0425615
397.264	0.0421609
399.192	0.0418448
401.121	0.0417496
403.049	0.041819
404.978	0.041997
406.906	0.0421949
408.835	0.0423324
410.763	0.0424321
412.692	0.0423127
414.62	0.0419849
416.549	0.0408465
418.477	0.0391168
420.406	0.0374624
422.334	0.0366904
424.262	0.0361557
426.191	0.0360136
428.12	0.036267
430.048	0.0366943
431.976	0.0372172
433.905	0.0379266
435.833	0.0386945
437.762	0.0394318
439.69	0.0401245
441.619	0.040834
443.547	0.0415891
445.476	0.0425961
447.404	0.0436424
449.333	0.0446279
451.261	0.0455217
453.19	0.0465325
455.118	0.0476603
457.046	0.0488955
458.975	0.0499533
460.903	0.0506586
462.832	0.0514384
464.76	0.0517601
466.689	0.0516262
468.617	0.0515661
470.546	0.0509703
472.474	0.0500488
474.403	0.0492369
476.331	0.0486006
478.26	0.0478492
480.188	0.047563
482.116	0.0473589
484.045	0.0470986
485.974	0.0465815
487.902	0.0464383
489.83	0.0464167
491.759	0.0464758
493.687	0.0465769
495.616	0.0465421
497.544	0.0467825
499.473	0.0471915
501.401	0.0474598
503.33	0.0483564
505.258	0.048879
507.187	0.0488975
509.115	0.0487888
511.043	0.0485554
512.972	0.0483211
514.9	0.0482703
516.829	0.0483382
518.757	0.0486917
520.686	0.0486888
522.614	0.0487967
524.543	0.0489594
526.471	0.0487565
528.4	0.0485102
530.328	0.0479127
532.257	0.0474582
534.185	0.0469418
536.114	0.0464068
538.042	0.0460338
539.971	0.0458462
541.899	0.0460823
543.827	0.0468234
545.756	0.0469408
547.684	0.0463932
549.613	0.0458315
551.541	0.0457287
553.47	0.0456118
555.398	0.045017
557.327	0.0449459
559.255	0.0451005
561.184	0.0452215
563.112	0.045674
565.041	0.0462559
566.969	0.0471222
568.898	0.04817
570.826	0.0492619
572.755	0.0498504
574.683	0.0503124
576.611	0.0509751
578.54	0.051212
580.468	0.0511077
582.397	0.0508669
584.325	0.0506781
586.254	0.0506101
588.182	0.0506838
590.111	0.0505724
592.039	0.0506743
593.968	0.0510579
595.896	0.051472
597.824	0.0521398
599.753	0.0530909
601.682	0.0537912
603.61	0.0541196
605.538	0.0547923
607.467	0.0553802
609.395	0.0554185
611.324	0.0554636
613.252	0.0561241
615.181	0.0566128
617.109	0.057167
619.038	0.057751
620.966	0.058665
622.894	0.0589615
624.823	0.0587159
626.751	0.0590869
628.68	0.0602697
630.608	0.0613309
632.537	0.0615641
634.465	0.0615403
636.394	0.0617352
638.322	0.0621732
640.251	0.0624544
642.179	0.0627046
644.108	0.0633768
646.036	0.0642228
647.965	0.0647525
649.893	0.0651654
651.822	0.0657553
653.75	0.0658698
655.678	0.0657856
657.607	0.0657376
659.535	0.0651302
661.464	0.0637645
663.392	0.0622888
665.321	0.061075
667.249	0.0601685
669.178	0.0586499
671.106	0.0574839
673.035	0.0570247
674.963	0.0565332
676.892	0.0561619
678.82	0.0564125
680.749	0.0564087
682.677	0.055981
684.606	0.056872
686.534	0.0578188
688.462	0.0587372
690.391	0.0594194
692.319	0.0601657
694.248	0.061356
696.176	0.0628123
698.105	0.0639934
700.033	0.065229
