Measurement: Infrared, Infrared Data Processed
Mineral: Lizardite
Rruff sample: R060006
Ideal chemistry: Mg_3_Si_2_O_5_(OH)_4_
Locality: Snarum, Norway
Source: University of Arizona Mineral Museum
Description: Green blebs of fine-grained serpentine habit, polytype 1T, associated with pearly hydrotalcite
Measured chemistry: (Mg_0.94_Fe^2+^_0.04_Al_0.02_)_3_(Si_0.97_Al_0.03_)_2_O_5_(OH)_4_
x	intensity
399.193	0.516898
408.835	0.505634
418.477	0.513001
428.12	0.476466
437.762	0.391787
447.404	0.317936
457.047	0.294178
466.689	0.264527
476.331	0.229541
485.974	0.201171
495.616	0.178371
505.258	0.160403
514.901	0.143136
524.543	0.161547
534.185	0.205181
543.828	0.22271
553.47	0.222977
563.112	0.220084
572.755	0.215806
582.397	0.217535
592.039	0.231972
601.682	0.276061
611.324	0.287453
620.966	0.259159
630.609	0.225338
640.251	0.189588
649.893	0.15602
659.536	0.126585
669.178	0.101906
678.82	0.0844231
688.463	0.0739877
698.105	0.0626625
707.747	0.0599389
717.39	0.0574647
727.032	0.0547978
736.674	0.0518993
746.317	0.0497174
755.959	0.0489483
765.601	0.0496779
775.244	0.049487
784.886	0.0488698
794.528	0.049773
804.171	0.0527631
813.813	0.0522163
823.455	0.0513926
833.098	0.0518774
842.74	0.054462
852.382	0.0596317
862.025	0.0690338
871.667	0.0846087
881.309	0.113296
890.952	0.171445
900.594	0.279197
910.236	0.452241
919.879	0.634563
929.521	0.749217
939.163	0.731501
948.806	0.65147
958.448	0.545844
968.09	0.447308
977.733	0.380939
987.375	0.338813
997.017	0.300564
1006.66	0.260162
1016.3	0.223168
1025.94	0.187702
1035.59	0.160212
1045.23	0.148655
1054.87	0.138305
1064.51	0.128013
1074.16	0.116222
1083.8	0.0959051
1093.44	0.0691449
1103.08	0.0401014
1112.72	0.0211513
1122.37	0.0156849
1132.01	0.0136463
1141.65	0.0126468
1151.3	0.00978633
1160.94	0.00920756
1170.58	0.00885117
1180.22	0.00876768
1189.86	0.00937467
1199.51	0.00930872
1209.15	0.0092135
1218.79	0.00933987
1228.43	0.00933721
1238.08	0.00923573
1247.72	0.00911171
1257.36	0.00927729
1267	0.00908909
1276.64	0.00940697
1286.29	0.00971428
1295.93	0.0094854
1305.57	0.0093342
1315.21	0.00951554
1324.86	0.0093665
1334.5	0.00992273
1344.14	0.0102123
1353.78	0.010612
1363.43	0.0107678
1373.07	0.0111229
1382.71	0.0114838
1392.35	0.011989
1401.99	0.0124377
1411.64	0.0133303
1421.28	0.0129444
1430.92	0.0118603
1440.57	0.0112402
1450.21	0.00997975
1459.85	0.00940648
1469.49	0.00883914
1479.13	0.0079356
1488.78	0.00777886
1498.42	0.00797653
1508.06	0.00891369
1517.7	0.0094458
1527.35	0.0106119
1536.99	0.0127077
1546.63	0.0144774
1556.27	0.0163577
1565.91	0.0165053
1575.56	0.0165431
1585.2	0.0159689
1594.84	0.0156134
1604.48	0.0149338
1614.13	0.0153405
1623.77	0.0146765
1633.41	0.0140256
1643.05	0.0126765
1652.7	0.0130206
1662.34	0.0107038
1671.98	0.00996092
1681.62	0.00953103
1691.27	0.00855821
1700.91	0.00888616
1710.55	0.00765385
1720.19	0.00692446
1729.84	0.00679258
1739.48	0.00548014
1749.12	0.00400488
1758.76	0.00345066
1768.4	0.00366643
1778.05	0.00293654
1787.69	0.00323144
1797.33	0.00260902
1806.97	0.00233898
1816.62	0.0019221
1826.26	0.00188183
1835.9	0.00112696
1845.54	0.000751828
1855.18	3.70057e-05
1864.83	-0.000321611
1874.47	-0.000991211
1884.11	-0.00217741
1893.75	-0.00147601
1903.4	-0.00322344
1913.04	-0.00254304
1922.68	-0.00347957
1932.32	-0.00451018
1941.97	-0.00521728
1951.61	-0.00659285
1961.25	-0.00839062
1970.89	-0.00738744
1980.54	-0.00726521
1990.18	-0.0065619
1999.82	-0.00744075
2009.46	-0.00865727
2019.11	-0.0070687
2028.75	-0.00729448
2038.39	-0.00415872
2048.03	-0.00515033
2057.67	-0.00425615
2067.32	-0.0029585
2076.96	-0.00161234
2086.6	-0.00241011
2096.24	-0.00250513
2105.89	-0.00251408
2115.53	-0.00109446
2125.17	-0.00351681
2134.81	-0.00647702
2144.45	-0.00559561
2154.1	-0.00968079
2163.74	-0.00617876
2173.38	-0.00479466
2183.02	-0.00478081
2192.67	-0.00137561
2202.31	-0.00137204
2211.95	-0.00136371
2221.59	-0.000225737
2231.24	0.00085249
2240.88	0.00120827
2250.52	0.00191613
2260.16	0.00198017
2269.8	0.00143247
2279.45	0.00354085
2289.09	0.00416717
2298.73	0.00331362
2308.38	0.00288353
2318.02	0.00418844
2327.66	0.00346892
2337.3	0.00380709
2346.94	0.00322022
2356.59	0.00386813
2366.23	0.00412433
2375.87	0.00268516
2385.51	0.0025249
2395.16	0.00214766
2404.8	0.00193907
2414.44	0.00265119
2424.08	0.00286238
2433.72	0.00178242
2443.37	0.00248721
2453.01	0.00299337
2462.65	0.00228816
2472.29	0.00127407
2481.94	0.00218724
2491.58	0.001357
2501.22	0.00312966
2510.86	0.00176008
2520.51	0.00171857
2530.15	0.000963004
2539.79	0.0011156
2549.43	0.00113421
2559.07	0.00122788
2568.72	0.00250314
2578.36	0.00239567
2588	0.00269538
2597.64	0.00292183
2607.29	0.00348922
2616.93	0.00352074
2626.57	0.0034389
2636.21	0.00366839
2645.86	0.00317999
2655.5	0.00420986
2665.14	0.00342209
2674.78	0.00421944
2684.43	0.00403123
2694.07	0.00408449
2703.71	0.0044995
2713.35	0.00419629
2722.99	0.00427585
2732.64	0.00489998
2742.28	0.00482522
2751.92	0.00494253
2761.56	0.00515925
2771.21	0.00455707
2780.85	0.00562732
2790.49	0.00613182
2800.13	0.00456348
2809.78	0.00515189
2819.42	0.00513571
2829.06	0.00558372
2838.7	0.0063185
2848.34	0.00725306
2857.99	0.00785318
2867.63	0.00870141
2877.27	0.00781781
2886.91	0.00900384
2896.56	0.00843424
2906.2	0.00909299
2915.84	0.0113497
2925.48	0.0117371
2935.13	0.0127267
2944.77	0.0103563
2954.41	0.0113271
2964.05	0.0110264
2973.7	0.0113462
2983.34	0.0105803
2992.98	0.0104285
3002.62	0.00936131
3012.26	0.00938434
3021.91	0.01042
3031.55	0.0112924
3041.19	0.012067
3050.83	0.0113451
3060.48	0.0137069
3070.12	0.0126254
3079.76	0.0130202
3089.4	0.0134128
3099.05	0.0138957
3108.69	0.0147091
3118.33	0.0143444
3127.97	0.0151939
3137.61	0.0158707
3147.26	0.0156504
3156.9	0.0163338
3166.54	0.019086
3176.18	0.0188074
3185.83	0.0194294
3195.47	0.0210444
3205.11	0.0190372
3214.75	0.0203648
3224.4	0.0215446
3234.04	0.0228398
3243.68	0.0232692
3253.32	0.0251783
3262.97	0.0231076
3272.61	0.025076
3282.25	0.0271532
3291.89	0.0250473
3301.53	0.025903
3311.18	0.0282664
3320.82	0.0270073
3330.46	0.0314665
3340.1	0.0314902
3349.75	0.0316227
3359.39	0.0341198
3369.03	0.0360836
3378.67	0.0366859
3388.32	0.0376028
3397.96	0.0414679
3407.6	0.0394731
3417.24	0.0406801
3426.89	0.0421378
3436.53	0.0436907
3446.17	0.0431135
3455.81	0.0458865
3465.45	0.0447305
3475.1	0.0458915
3484.74	0.0471562
3494.38	0.0494084
3504.02	0.0510557
3513.67	0.05274
3523.31	0.0547359
3532.95	0.0616905
3542.59	0.0674517
3552.24	0.0731464
3561.88	0.0760132
3571.52	0.0803423
3581.16	0.0828181
3590.8	0.0873734
3600.45	0.0865791
3610.09	0.0827962
3619.73	0.0816818
3629.37	0.0997039
3639.02	0.133547
3648.66	0.159803
3658.3	0.180342
3667.94	0.23919
3677.59	0.380264
3687.23	0.325445
3696.87	0.122511
3706.51	0.0441095
3716.16	0.00741213
3725.8	0.000859939
3735.44	0.00107295
3745.08	0.000860417
3754.72	-0.000966
3764.37	-0.0018594
3774.01	0.000992933
3783.65	-0.00199189
3793.29	0.00019445
3802.94	0.00322021
3812.58	-0.00190845
3822.22	0.00320228
3831.86	0.00144879
3841.51	0.00230251
3851.15	0.0015331
3860.79	0.00411023
3870.43	0.00255513
3880.07	0.000414022
3889.72	0.00111339
3899.36	0.00496888
3909	0.00173427
3918.64	0.00342188
3928.29	0.00170751
3937.93	0.00273246
3947.57	0.003999
3957.21	0.00359877
3966.86	0.00305075
3976.5	0.00130502
3986.14	0.00306796
3995.78	0.00295336
