Measurement: Infrared, Infrared Data Processed
Mineral: Marialite
Rruff sample: R040113
Ideal chemistry: Na_4_Al_3_Si_9_O_24_Cl
Locality: Gouverneur, New York, USA
Source: University of Arizona Mineral Museum
Description: Green prismatic crystal
Measured chemistry: (Na_0.50_Ca_0.43_K_0.07_)_4_(Si_0.64_Al_0.36_)_12_O_24_(Cl_0.60_(CO_3_)_0.40_)
x	intensity
374.123	0.109169
383.765	0.132009
393.407	0.133782
403.05	0.1662
412.692	0.16384
422.334	0.152878
431.976	0.142715
441.619	0.157134
451.261	0.17382
460.904	0.157105
470.546	0.107211
480.188	0.0660295
489.83	0.0513639
499.473	0.0482995
509.115	0.0562486
518.758	0.0813115
528.4	0.11284
538.042	0.135332
547.684	0.122244
557.327	0.0870442
566.969	0.056671
576.611	0.0433617
586.254	0.0359813
595.896	0.0369661
605.538	0.053765
615.181	0.0956965
624.823	0.0720138
634.466	0.0361265
644.108	0.0305171
653.75	0.0295569
663.393	0.0319007
673.035	0.0385198
682.677	0.0496036
692.319	0.0566234
701.962	0.054524
711.604	0.0464157
721.246	0.0424139
730.889	0.043595
740.531	0.0459782
750.173	0.0591285
759.816	0.0454935
769.458	0.0299011
779.101	0.0242409
788.743	0.021467
798.385	0.0226864
808.028	0.0245486
817.67	0.0273974
827.312	0.0313193
836.955	0.0360651
846.597	0.0457083
856.239	0.0495782
865.881	0.0541562
875.524	0.0624784
885.166	0.0680699
894.808	0.0796543
904.451	0.09627
914.093	0.115382
923.736	0.138496
933.378	0.164157
943.02	0.185041
952.663	0.196847
962.305	0.200662
971.947	0.208186
981.59	0.21651
991.232	0.218507
1000.87	0.215264
1010.52	0.209361
1020.16	0.199737
1029.8	0.18239
1039.44	0.154472
1049.09	0.122937
1058.73	0.104933
1068.37	0.097008
1078.01	0.0932744
1087.65	0.0929416
1097.3	0.0934985
1106.94	0.0905455
1116.58	0.0829578
1126.22	0.070236
1135.87	0.0521463
1145.51	0.0355355
1155.15	0.0356984
1164.79	0.0500536
1174.44	0.0680939
1184.08	0.0733534
1193.72	0.0592318
1203.36	0.0440428
1213.01	0.0310483
1222.65	0.0169423
1232.29	0.00822885
1241.93	0.00483701
1251.58	0.003212
1261.22	0.00231191
1270.86	0.00182337
1280.5	0.00204966
1290.14	0.00196486
1299.79	0.00175298
1309.43	0.00163947
1319.07	0.00181627
1328.71	0.00180521
1338.36	0.00229647
1348	0.00255767
1357.64	0.00334747
1367.28	0.00439087
1376.92	0.00603932
1386.57	0.00849881
1396.21	0.0118597
1405.85	0.0167526
1415.49	0.0227073
1425.14	0.0243409
1434.78	0.0220751
1444.42	0.0178833
1454.06	0.0146301
1463.71	0.0134339
1473.35	0.0127384
1482.99	0.0115523
1492.63	0.0114202
1502.28	0.0116565
1511.92	0.0134625
1521.56	0.0195668
1531.2	0.0251967
1540.85	0.0190919
1550.49	0.010068
1560.13	0.00712635
1569.77	0.00387395
1579.41	0.00196779
1589.06	0.00124919
1598.7	0.00101754
1608.34	0.000908843
1617.98	0.00115117
1627.63	0.00107492
1637.27	0.00131399
1646.91	0.00135908
1656.55	0.000934235
1666.19	0.000718067
1675.84	0.00076566
1685.48	0.00121171
1695.12	0.00122644
1704.77	0.000856958
1714.41	0.000601707
1724.05	-0.000145311
1733.69	0.000229572
1743.33	-0.00110521
1752.98	-0.00109735
1762.62	-0.000903222
1772.26	-0.0005297
1781.9	-0.000840977
1791.55	-0.00068701
1801.19	-0.000848045
1810.83	-0.00122001
1820.47	-0.00098718
1830.12	-0.00110582
1839.76	-0.00137901
1849.4	-0.00164622
1859.04	-0.0021359
1868.68	-0.00173625
1878.33	-0.0020828
1887.97	-0.00204031
1897.61	-0.00207224
1907.25	-0.0027296
1916.9	-0.00213838
1926.54	-0.00385839
1936.18	-0.00276492
1945.82	-0.00323793
1955.46	-0.00343545
1965.11	-0.00291226
1974.75	-0.00287498
1984.39	-0.00158309
1994.04	-0.00226565
2003.68	-0.00372244
2013.32	-0.00303142
2022.96	-0.00226452
2032.6	-0.00361858
2042.25	-0.0019181
2051.89	-0.00187489
2061.53	-0.00346521
2071.17	-0.00261639
2080.82	-0.00261852
2090.46	-0.00281111
2100.1	-0.00190161
2109.74	-0.00140675
2119.39	-0.0028944
2129.03	-0.00354703
2138.67	-0.00265315
2148.31	-0.00338071
2157.95	-0.00225435
2167.6	0.00108732
2177.24	-0.000315807
2186.88	-0.000517295
2196.52	-0.000326663
2206.17	-0.000769884
2215.81	-0.000881323
2225.45	-0.000966545
2235.09	-9.78155e-05
2244.74	-0.000427506
2254.38	-0.000847223
2264.02	-0.000110257
2273.66	-0.000142895
2283.3	0.00100716
2292.95	-9.87693e-05
2302.59	-0.000452989
2312.23	-0.000352148
2321.87	0.000952984
2331.52	-0.000397299
2341.16	-0.000810083
2350.8	-0.00161519
2360.44	-0.000860078
2370.09	-0.00163486
2379.73	-0.00268428
2389.37	-0.00228868
2399.01	-0.00227601
2408.66	-0.00152188
2418.3	-0.00226527
2427.94	-0.00146719
2437.58	-0.00181237
2447.22	-0.00110663
2456.87	-0.00091326
2466.51	-0.000956174
2476.15	-0.000699848
2485.79	-0.00202544
2495.44	-0.000779446
2505.08	-0.000860312
2514.72	-0.0012966
2524.36	-0.000606089
2534.01	-0.000296506
2543.65	-0.00108201
2553.29	-0.000756332
2562.93	-0.00081567
2572.57	-0.000450168
2582.22	-0.000639699
2591.86	-0.000735079
2601.5	-0.000554976
2611.14	-0.000719202
2620.79	-0.000707325
2630.43	-0.000409348
2640.07	-0.000740415
2649.71	-0.00112564
2659.36	-0.001059
2669	-0.00202137
2678.64	-0.00181331
2688.28	-0.00207358
2697.93	-0.00166765
2707.57	-0.00185881
2717.21	-0.00211541
2726.85	-0.00211133
2736.49	-0.00201637
2746.14	-0.00179894
2755.78	-0.00216418
2765.42	-0.00223087
2775.06	-0.00212919
2784.71	-0.00205455
2794.35	-0.0018648
2803.99	-0.00208906
2813.63	-0.00179675
2823.28	-0.00204119
2832.92	-0.00165681
2842.56	-0.00169755
2852.2	-0.0021804
2861.84	-0.00198343
2871.49	-0.00208835
2881.13	-0.00172403
2890.77	-0.00189089
2900.41	-0.00161843
2910.06	-0.00195477
2919.7	-0.00198561
2929.34	-0.00241686
2938.98	-0.00206915
2948.62	-0.00226995
2958.27	-0.00164223
2967.91	-0.00180237
2977.55	-0.00207215
2987.2	-0.0026275
2996.84	-0.00231053
3006.48	-0.00248562
3016.12	-0.00273038
3025.76	-0.00273162
3035.41	-0.00253909
3045.05	-0.00265643
3054.69	-0.00257737
3064.33	-0.00236297
3073.98	-0.00234998
3083.62	-0.00199871
3093.26	-0.00223664
3102.9	-0.00168597
3112.55	-0.00139805
3122.19	-0.0021794
3131.83	-0.00130492
3141.47	-0.00130385
3151.11	-0.00144136
3160.76	-0.00163157
3170.4	-0.00105568
3180.04	-0.00101131
3189.68	-0.0012335
3199.33	-0.00124008
3208.97	-0.00104378
3218.61	-0.001045
3228.25	-0.000705207
3237.9	-0.000556112
3247.54	-0.000551632
3257.18	-3.88035e-05
3266.82	-0.00184719
3276.47	-0.000710843
3286.11	-0.00075157
3295.75	-0.000440275
3305.39	-0.000203626
3315.03	0.000465206
3324.68	-0.000660721
3334.32	-0.00117084
3343.96	-0.000228797
3353.6	0.000252136
3363.25	2.77447e-05
3372.89	0.000423851
3382.53	0.000182265
3392.17	0.000691084
3401.82	0.000409593
3411.46	-2.5718e-05
3421.1	0.000234385
3430.74	-0.000245665
3440.39	0.000424202
3450.03	0.000750069
3459.67	0.000314016
3469.31	-0.000211589
3478.95	0.000159233
3488.6	-0.000456231
3498.24	0.000176613
3507.88	-0.000391553
3517.52	6.7939e-05
3527.17	-0.000194327
3536.81	0.000889738
3546.45	0.00101846
3556.09	0.0013164
3565.74	0.000924386
3575.38	0.00116317
3585.02	0.000754962
3594.66	0.000797286
3604.3	-0.000561847
3613.95	-0.000812764
3623.59	-8.92105e-05
3633.23	-0.000655089
3642.87	-0.00187022
3652.52	-0.00200544
3662.16	-0.00341902
3671.8	-0.00268206
3681.44	-0.00327763
3691.09	-0.00404722
3700.73	-0.00510195
3710.37	-0.00479349
3720.01	-0.00614378
3729.66	-0.00535139
3739.3	-0.0045718
3748.94	-0.00433699
3758.58	-0.0053672
3768.22	-0.00593333
3777.87	-0.00698154
3787.51	-0.00666795
3797.15	-0.00594285
3806.79	-0.00557119
3816.44	-0.00496135
3826.08	-0.00696391
3835.72	-0.00527645
3845.36	-0.00669905
3855.01	-0.00536841
3864.65	-0.00647331
3874.29	-0.00768378
3883.93	-0.00641328
3893.57	-0.00651579
3903.22	-0.00623581
3912.86	-0.00631074
3922.5	-0.00674586
3932.14	-0.00739233
3941.79	-0.00793896
3951.43	-0.0076218
3961.07	-0.00709682
3970.71	-0.00602738
3980.36	-0.00697325
3990	-0.00606086
3999.64	-0.00705202
