Measurement: Infrared, Infrared Data Processed
Mineral: Mesolite
Rruff sample: R050013
Ideal chemistry: Na_2_Ca_2_(Si_9_Al_6_)O_30_8H_2_O
Locality: Poona, Maharashtra, India
Source: University of Arizona Mineral Museum
Description: Clear to white elongated prismatic single crystal
Measured chemistry: Na_2.00_Ca_2.00_(Si_9.00_Al_6.00_)O_30_Â·8H_2_O
x	intensity
399.193	0.127195
408.835	0.137324
418.477	0.165547
428.12	0.147327
437.762	0.117027
447.404	0.0784396
457.047	0.0653475
466.689	0.0732606
476.331	0.086739
485.974	0.0957625
495.616	0.105818
505.258	0.104291
514.901	0.0966168
524.543	0.0910668
534.185	0.10537
543.828	0.110674
553.47	0.0899017
563.112	0.0890134
572.755	0.0940084
582.397	0.0855331
592.039	0.0837896
601.682	0.092816
611.324	0.112073
620.966	0.115579
630.609	0.106249
640.251	0.0831528
649.893	0.0690198
659.536	0.0664089
669.178	0.0717059
678.82	0.0691728
688.463	0.0832271
698.105	0.0661423
707.747	0.0560543
717.39	0.0625152
727.032	0.0554918
736.674	0.0356821
746.317	0.0252724
755.959	0.0231827
765.601	0.0245929
775.244	0.0264094
784.886	0.0286712
794.528	0.0271744
804.171	0.0287727
813.813	0.029532
823.455	0.0301093
833.098	0.0267516
842.74	0.0274312
852.382	0.0299303
862.025	0.0351578
871.667	0.0442843
881.309	0.0521402
890.952	0.0665411
900.594	0.0893048
910.236	0.130462
919.879	0.192114
929.521	0.256811
939.163	0.298193
948.806	0.22305
958.448	0.238079
968.09	0.295336
977.733	0.299828
987.375	0.252309
997.017	0.222043
1006.66	0.211046
1016.3	0.19827
1025.94	0.160267
1035.59	0.130463
1045.23	0.119794
1054.87	0.112406
1064.51	0.0973849
1074.16	0.0760346
1083.8	0.0828532
1093.44	0.118809
1103.08	0.10335
1112.72	0.0854517
1122.37	0.0638447
1132.01	0.053366
1141.65	0.0383164
1151.3	0.0295164
1160.94	0.02507
1170.58	0.0178132
1180.22	0.0178086
1189.86	0.0173405
1199.51	0.0133645
1209.15	0.0110101
1218.79	0.0124827
1228.43	0.0107958
1238.08	0.00933638
1247.72	0.00792221
1257.36	0.00590848
1267	0.00337278
1276.64	0.00318891
1286.29	0.00358352
1295.93	0.0035874
1305.57	0.00374086
1315.21	0.00372987
1324.86	0.00356683
1334.5	0.0034454
1344.14	0.00294196
1353.78	0.00308862
1363.43	0.00400617
1373.07	0.00320122
1382.71	0.00342365
1392.35	0.00369725
1401.99	0.00378545
1411.64	0.00450277
1421.28	0.00363435
1430.92	0.00365298
1440.57	0.00396256
1450.21	0.00422615
1459.85	0.00435733
1469.49	0.00405464
1479.13	0.00357697
1488.78	0.00405942
1498.42	0.00666435
1508.06	0.00639557
1517.7	0.00310403
1527.35	0.00336628
1536.99	0.00408595
1546.63	0.00471878
1556.27	0.0055537
1565.91	0.00656186
1575.56	0.00712291
1585.2	0.00947501
1594.84	0.0100533
1604.48	0.00801831
1614.13	0.00684453
1623.77	0.00752419
1633.41	0.0108737
1643.05	0.0212085
1652.7	0.0187374
1662.34	0.0287789
1671.98	0.01009
1681.62	0.00445993
1691.27	0.00352048
1700.91	0.00307799
1710.55	0.00363342
1720.19	0.00292887
1729.84	0.00302156
1739.48	0.00204829
1749.12	0.00270676
1758.76	0.00548999
1768.4	0.00813786
1778.05	0.00650737
1787.69	0.0038927
1797.33	0.00122619
1806.97	0.000373637
1816.62	-0.000191545
1826.26	-0.000514637
1835.9	-0.000653724
1845.54	-0.00149095
1855.18	-0.00113998
1864.83	-0.00178339
1874.47	-0.00175017
1884.11	-0.00304544
1893.75	-0.00238422
1903.4	-0.00196301
1913.04	-0.00225932
1922.68	-0.00373155
1932.32	-0.00500579
1941.97	-0.00560658
1951.61	-0.00680352
1961.25	-0.0082421
1970.89	-0.0086071
1980.54	-0.00512279
1990.18	-0.00710904
1999.82	-0.00639093
2009.46	-0.0089586
2019.11	-0.00701603
2028.75	-0.00732407
2038.39	-0.0061743
2048.03	-0.00234162
2057.67	-0.00223201
2067.32	-0.00218709
2076.96	-0.000252385
2086.6	-0.000888122
2096.24	-0.0015571
2105.89	-0.00131473
2115.53	-0.000736469
2125.17	-0.00199276
2134.81	-0.00291772
2144.45	-0.00185786
2154.1	-0.00462314
2163.74	-0.00135211
2173.38	-0.00167384
2183.02	-0.00553942
2192.67	-0.00233594
2202.31	-0.00166771
2211.95	-0.002993
2221.59	0.000682241
2231.24	0.00151505
2240.88	0.00153302
2250.52	0.0010715
2260.16	0.00138198
2269.8	0.00252704
2279.45	0.00301737
2289.09	0.00364704
2298.73	0.00391517
2308.38	0.00348702
2318.02	0.00394597
2327.66	0.00339818
2337.3	0.00408252
2346.94	0.00315005
2356.59	0.00332599
2366.23	0.00301137
2375.87	0.00259206
2385.51	0.00303269
2395.16	0.00258361
2404.8	0.00211343
2414.44	0.00305634
2424.08	0.00259129
2433.72	0.00149524
2443.37	0.00266206
2453.01	0.0029132
2462.65	0.00276496
2472.29	0.00238576
2481.94	0.00231149
2491.58	0.00256688
2501.22	0.0024992
2510.86	0.00220661
2520.51	0.00278741
2530.15	0.00266968
2539.79	0.00192822
2549.43	0.00389246
2559.07	0.00358825
2568.72	0.00414737
2578.36	0.00271767
2588	0.00398012
2597.64	0.00314143
2607.29	0.00380591
2616.93	0.00404402
2626.57	0.00458894
2636.21	0.00407912
2645.86	0.00407337
2655.5	0.00486902
2665.14	0.00389684
2674.78	0.00367136
2684.43	0.00299723
2694.07	0.00396102
2703.71	0.00433464
2713.35	0.00350976
2722.99	0.00430782
2732.64	0.0040321
2742.28	0.00380861
2751.92	0.00397471
2761.56	0.00514227
2771.21	0.00506647
2780.85	0.00411798
2790.49	0.00411706
2800.13	0.0045669
2809.78	0.00493478
2819.42	0.00475357
2829.06	0.00518627
2838.7	0.00536099
2848.34	0.00508188
2857.99	0.00595688
2867.63	0.00641391
2877.27	0.00667861
2886.91	0.00728039
2896.56	0.00680223
2906.2	0.00769743
2915.84	0.00647163
2925.48	0.00746361
2935.13	0.0079562
2944.77	0.00944345
2954.41	0.0081438
2964.05	0.00974781
2973.7	0.0103573
2983.34	0.010638
2992.98	0.0106722
3002.62	0.010069
3012.26	0.0108745
3021.91	0.0109449
3031.55	0.0117844
3041.19	0.0116403
3050.83	0.0115949
3060.48	0.0129219
3070.12	0.0130923
3079.76	0.0129063
3089.4	0.0142096
3099.05	0.0137654
3108.69	0.0141081
3118.33	0.0148903
3127.97	0.0147781
3137.61	0.0174497
3147.26	0.0190137
3156.9	0.0209111
3166.54	0.0225184
3176.18	0.0256975
3185.83	0.0301781
3195.47	0.0322255
3205.11	0.0308017
3214.75	0.0302713
3224.4	0.0273842
3234.04	0.0275248
3243.68	0.0274741
3253.32	0.0294044
3262.97	0.0298454
3272.61	0.0301376
3282.25	0.0274764
3291.89	0.0258915
3301.53	0.0247709
3311.18	0.0252289
3320.82	0.027337
3330.46	0.0294858
3340.1	0.0346466
3349.75	0.0399005
3359.39	0.0418416
3369.03	0.0437816
3378.67	0.0438631
3388.32	0.0448894
3397.96	0.0428282
3407.6	0.0377506
3417.24	0.032695
3426.89	0.0307021
3436.53	0.0313597
3446.17	0.0307834
3455.81	0.0310966
3465.45	0.0325622
3475.1	0.0305026
3484.74	0.029328
3494.38	0.0277897
3504.02	0.0308856
3513.67	0.035275
3523.31	0.0430407
3532.95	0.046533
3542.59	0.0401601
3552.24	0.0331805
3561.88	0.030793
3571.52	0.0246842
3581.16	0.0200765
3590.8	0.0175646
3600.45	0.0163049
3610.09	0.0120545
3619.73	0.00857872
3629.37	0.00838622
3639.02	0.00538807
3648.66	0.00574115
3658.3	0.00509886
3667.94	0.00380954
3677.59	0.00366447
3687.23	0.00183928
3696.87	0.000238911
3706.51	0.00438879
3716.16	0.00102952
3725.8	0.00192055
3735.44	0.00199857
3745.08	0.00195981
3754.72	0.00409088
3764.37	0.00143909
3774.01	0.00324616
3783.65	0.00352175
3793.29	0.00359876
3802.94	0.00608885
3812.58	0.00531905
3822.22	0.00419985
3831.86	0.00297295
3841.51	0.003248
3851.15	0.00334358
3860.79	0.0017773
3870.43	0.00190767
3880.07	0.00545054
3889.72	0.00385323
3899.36	0.0015863
3909	0.00333493
3918.64	0.00445025
3928.29	0.00319537
3937.93	0.000788252
3947.57	0.00271051
3957.21	0.00446246
3966.86	0.00255492
3976.5	0.00279517
3986.14	0.00452317
3995.78	0.00504511
