Measurement: Infrared, Infrared Data Processed
Mineral: Miargyrite
Rruff sample: R050480
Ideal chemistry: Ag^1+^Sb^3+^S^2-^_2_
Locality: Boulder County, Colorado, USA
Source: California Institute of Technology
Description: Dark gray metallic fragment, hints of internal red
Measured chemistry: Ag_1.00_Sb_1.00_S_2.00_
x	intensity
374.123	0.0693668
383.765	0.0720744
393.407	0.0954178
403.05	0.0812162
412.692	0.0942325
422.334	0.11123
431.976	0.123157
441.619	0.132985
451.261	0.142907
460.904	0.149671
470.546	0.1467
480.188	0.142453
489.83	0.138572
499.473	0.137485
509.115	0.135723
518.758	0.136049
528.4	0.132572
538.042	0.130962
547.684	0.130845
557.327	0.13348
566.969	0.136699
576.611	0.137823
586.254	0.138414
595.896	0.141155
605.538	0.146144
615.181	0.143244
624.823	0.144449
634.466	0.14669
644.108	0.149857
653.75	0.152359
663.393	0.155847
673.035	0.159162
682.677	0.1645
692.319	0.171056
701.962	0.165098
711.604	0.166452
721.246	0.169694
730.889	0.173617
740.531	0.177885
750.173	0.182766
759.816	0.188979
769.458	0.196517
779.101	0.200552
788.743	0.198694
798.385	0.199721
808.028	0.184074
817.67	0.179459
827.312	0.181216
836.955	0.183235
846.597	0.186586
856.239	0.189857
865.881	0.194463
875.524	0.197506
885.166	0.2008
894.808	0.204862
904.451	0.208798
914.093	0.212526
923.736	0.216282
933.378	0.219978
943.02	0.223583
952.663	0.227237
962.305	0.231677
971.947	0.235459
981.59	0.240276
991.232	0.245963
1000.87	0.25191
1010.52	0.257669
1020.16	0.263431
1029.8	0.269896
1039.44	0.275157
1049.09	0.275536
1058.73	0.27168
1068.37	0.266546
1078.01	0.265983
1087.65	0.264201
1097.3	0.259786
1106.94	0.253315
1116.58	0.247203
1126.22	0.2431
1135.87	0.240898
1145.51	0.239391
1155.15	0.238063
1164.79	0.240226
1174.44	0.23754
1184.08	0.235769
1193.72	0.233946
1203.36	0.232214
1213.01	0.230505
1222.65	0.229607
1232.29	0.230172
1241.93	0.230994
1251.58	0.231863
1261.22	0.233274
1270.86	0.234199
1280.5	0.235705
1290.14	0.236699
1299.79	0.237849
1309.43	0.239147
1319.07	0.240431
1328.71	0.241712
1338.36	0.243008
1348	0.244192
1357.64	0.245702
1367.28	0.247464
1376.92	0.249042
1386.57	0.25046
1396.21	0.25237
1405.85	0.254621
1415.49	0.256668
1425.14	0.258253
1434.78	0.259074
1444.42	0.259884
1454.06	0.261547
1463.71	0.261462
1473.35	0.261729
1482.99	0.262406
1492.63	0.263619
1502.28	0.264861
1511.92	0.265575
1521.56	0.267034
1531.2	0.268041
1540.85	0.268866
1550.49	0.270233
1560.13	0.271537
1569.77	0.272783
1579.41	0.274068
1589.06	0.275206
1598.7	0.277175
1608.34	0.278698
1617.98	0.280288
1627.63	0.281327
1637.27	0.28243
1646.91	0.283853
1656.55	0.284645
1666.19	0.285772
1675.84	0.28685
1685.48	0.288308
1695.12	0.289513
1704.77	0.290235
1714.41	0.291435
1724.05	0.292525
1733.69	0.293482
1743.33	0.293535
1752.98	0.29434
1762.62	0.295226
1772.26	0.296441
1781.9	0.297904
1791.55	0.298955
1801.19	0.299812
1810.83	0.300724
1820.47	0.301826
1830.12	0.302934
1839.76	0.303582
1849.4	0.305112
1859.04	0.306715
1868.68	0.307874
1878.33	0.308328
1887.97	0.310195
1897.61	0.311284
1907.25	0.311572
1916.9	0.312084
1926.54	0.313565
1936.18	0.314879
1945.82	0.315589
1955.46	0.317465
1965.11	0.3181
1974.75	0.318871
1984.39	0.320836
1994.04	0.322088
2003.68	0.32242
2013.32	0.323995
2022.96	0.323781
2032.6	0.32817
2042.25	0.327544
2051.89	0.328149
2061.53	0.328337
2071.17	0.330694
2080.82	0.330859
2090.46	0.331808
2100.1	0.333361
2109.74	0.333476
2119.39	0.334466
2129.03	0.334972
2138.67	0.336106
2148.31	0.336956
2157.95	0.337257
2167.6	0.338481
2177.24	0.340233
2186.88	0.339961
2196.52	0.341866
2206.17	0.343015
2215.81	0.34448
2225.45	0.344259
2235.09	0.345267
2244.74	0.346828
2254.38	0.348419
2264.02	0.34867
2273.66	0.35146
2283.3	0.351872
2292.95	0.352084
2302.59	0.353073
2312.23	0.35381
2321.87	0.354907
2331.52	0.355658
2341.16	0.356414
2350.8	0.357973
2360.44	0.35842
2370.09	0.359647
2379.73	0.360594
2389.37	0.361826
2399.01	0.362584
2408.66	0.363709
2418.3	0.364393
2427.94	0.365681
2437.58	0.365986
2447.22	0.366837
2456.87	0.368575
2466.51	0.369111
2476.15	0.36959
2485.79	0.370558
2495.44	0.371417
2505.08	0.373012
2514.72	0.374006
2524.36	0.374574
2534.01	0.374883
2543.65	0.376103
2553.29	0.37658
2562.93	0.377906
2572.57	0.3797
2582.22	0.380555
2591.86	0.381064
2601.5	0.382978
2611.14	0.383937
2620.79	0.384517
2630.43	0.386148
2640.07	0.38719
2649.71	0.388364
2659.36	0.389758
2669	0.391097
2678.64	0.391143
2688.28	0.392233
2697.93	0.393485
2707.57	0.394833
2717.21	0.395418
2726.85	0.396531
2736.49	0.397351
2746.14	0.398352
2755.78	0.399918
2765.42	0.400431
2775.06	0.401361
2784.71	0.402254
2794.35	0.403259
2803.99	0.404409
2813.63	0.40549
2823.28	0.407175
2832.92	0.408076
2842.56	0.40956
2852.2	0.410401
2861.84	0.411554
2871.49	0.412549
2881.13	0.413182
2890.77	0.414314
2900.41	0.415691
2910.06	0.416675
2919.7	0.416927
2929.34	0.418451
2938.98	0.418311
2948.62	0.418517
2958.27	0.420001
2967.91	0.418822
2977.55	0.419508
2987.2	0.419575
2996.84	0.421312
3006.48	0.422427
3016.12	0.421656
3025.76	0.424416
3035.41	0.425393
3045.05	0.426832
3054.69	0.42731
3064.33	0.428228
3073.98	0.429769
3083.62	0.430563
3093.26	0.431104
3102.9	0.432924
3112.55	0.433853
3122.19	0.434559
3131.83	0.436267
3141.47	0.436657
3151.11	0.438548
3160.76	0.438532
3170.4	0.439559
3180.04	0.440966
3189.68	0.442012
3199.33	0.442604
3208.97	0.443785
3218.61	0.444769
3228.25	0.445851
3237.9	0.447081
3247.54	0.447633
3257.18	0.448437
3266.82	0.449349
3276.47	0.451029
3286.11	0.450783
3295.75	0.451988
3305.39	0.453104
3315.03	0.454486
3324.68	0.454647
3334.32	0.456091
3343.96	0.456499
3353.6	0.457637
3363.25	0.458329
3372.89	0.459529
3382.53	0.46049
3392.17	0.460525
3401.82	0.461727
3411.46	0.46225
3421.1	0.46308
3430.74	0.464229
3440.39	0.465519
3450.03	0.467098
3459.67	0.467815
3469.31	0.468209
3478.95	0.469163
3488.6	0.47042
3498.24	0.471727
3507.88	0.471423
3517.52	0.473516
3527.17	0.473579
3536.81	0.474253
3546.45	0.474608
3556.09	0.475681
3565.74	0.475698
3575.38	0.476135
3585.02	0.478003
3594.66	0.478058
3604.3	0.478893
3613.95	0.480451
3623.59	0.481994
3633.23	0.484057
3642.87	0.4831
3652.52	0.484344
3662.16	0.483494
3671.8	0.486219
3681.44	0.486519
3691.09	0.487617
3700.73	0.488158
3710.37	0.48921
3720.01	0.492004
3729.66	0.492485
3739.3	0.492807
3748.94	0.493395
3758.58	0.494026
3768.22	0.494568
3777.87	0.495865
3787.51	0.495624
3797.15	0.498962
3806.79	0.498498
3816.44	0.499548
3826.08	0.500282
3835.72	0.500075
3845.36	0.501888
3855.01	0.501866
3864.65	0.503074
3874.29	0.503955
3883.93	0.504908
3893.57	0.505806
3903.22	0.506367
3912.86	0.508527
3922.5	0.508753
3932.14	0.509937
3941.79	0.510915
3951.43	0.510935
3961.07	0.512699
3970.71	0.512761
3980.36	0.514173
3990	0.515642
3999.64	0.515686
