Measurement: Infrared, Infrared Data Processed
Mineral: Microcline
Rruff sample: R050193
Ideal chemistry: KAlSi_3_O_8_
Locality: Devil's Head, Douglas County, Colorado, USA
Source: Dave Bunk Minerals
Description: White to colorless heterogeneous mixture of K and Na feldspar in a cluster of crystals. Crystal structure determined, presented below. This sample is known as an intermediate microcline in the literature.
Measured chemistry: (K_0.929_Na_0.071_)(Al_1.005_Si_2.994_Fe_0.001_)O_7.993_F_0.007_  ; Light Band :  (Na_0.973_K_0.007_Ca_0.020_)(Al_1.020_Si_2.980_)O_8_ ; Dark Band
x	intensity
374.123	0.305556
383.765	0.244921
393.407	0.250019
403.05	0.251537
412.692	0.297725
422.334	0.272847
431.976	0.207196
441.619	0.15219
451.261	0.108473
460.904	0.101678
470.546	0.0831997
480.188	0.0648006
489.83	0.0427015
499.473	0.0395069
509.115	0.0468449
518.758	0.0652496
528.4	0.125863
538.042	0.146433
547.684	0.0957481
557.327	0.115308
566.969	0.174471
576.611	0.217667
586.254	0.207976
595.896	0.162482
605.538	0.125225
615.181	0.0809542
624.823	0.0557098
634.466	0.0592614
644.108	0.0989433
653.75	0.0784857
663.393	0.042294
673.035	0.0334807
682.677	0.0333122
692.319	0.0379675
701.962	0.0515429
711.604	0.0794252
721.246	0.122385
730.889	0.108525
740.531	0.0952417
750.173	0.0893443
759.816	0.103458
769.458	0.0912876
779.101	0.0739804
788.743	0.0679485
798.385	0.0360009
808.028	0.0246383
817.67	0.0214257
827.312	0.0217077
836.955	0.0239205
846.597	0.0281606
856.239	0.0343401
865.881	0.044554
875.524	0.0601836
885.166	0.0745185
894.808	0.0872721
904.451	0.103189
914.093	0.123514
923.736	0.152338
933.378	0.193635
943.02	0.253007
952.663	0.331151
962.305	0.420301
971.947	0.502593
981.59	0.551432
991.232	0.557589
1000.87	0.530394
1010.52	0.476419
1020.16	0.42203
1029.8	0.387961
1039.44	0.34247
1049.09	0.294926
1058.73	0.23914
1068.37	0.202024
1078.01	0.192555
1087.65	0.194295
1097.3	0.195641
1106.94	0.190175
1116.58	0.191227
1126.22	0.198551
1135.87	0.190955
1145.51	0.164922
1155.15	0.136141
1164.79	0.105873
1174.44	0.0791171
1184.08	0.0579884
1193.72	0.0401801
1203.36	0.0275298
1213.01	0.0194241
1222.65	0.0144011
1232.29	0.0110318
1241.93	0.00854485
1251.58	0.00676605
1261.22	0.00532086
1270.86	0.00456153
1280.5	0.00415096
1290.14	0.00346819
1299.79	0.00285235
1309.43	0.00268666
1319.07	0.00232987
1328.71	0.0021913
1338.36	0.00210822
1348	0.00220221
1357.64	0.00191073
1367.28	0.00192571
1376.92	0.00203305
1386.57	0.00207307
1396.21	0.00195751
1405.85	0.00194021
1415.49	0.00214541
1425.14	0.00261123
1434.78	0.00289096
1444.42	0.00296699
1454.06	0.00313425
1463.71	0.00323355
1473.35	0.00327503
1482.99	0.00307931
1492.63	0.00259468
1502.28	0.0022775
1511.92	0.00237677
1521.56	0.00221832
1531.2	0.00176404
1540.85	0.00229831
1550.49	0.00230773
1560.13	0.00268138
1569.77	0.00255768
1579.41	0.00241505
1589.06	0.00278172
1598.7	0.00287732
1608.34	0.00306229
1617.98	0.0035527
1627.63	0.00369093
1637.27	0.0037247
1646.91	0.00393676
1656.55	0.00350903
1666.19	0.00272025
1675.84	0.00281385
1685.48	0.00285999
1695.12	0.00259501
1704.77	0.00208168
1714.41	0.002221
1724.05	0.0022983
1733.69	0.00212615
1743.33	0.00115106
1752.98	0.0013032
1762.62	0.00113196
1772.26	0.00176091
1781.9	0.00157627
1791.55	0.00143287
1801.19	0.000915028
1810.83	0.000704154
1820.47	0.000595088
1830.12	-3.79034e-06
1839.76	-0.000117817
1849.4	-0.000158211
1859.04	5.97996e-05
1868.68	-0.000820409
1878.33	-0.00152645
1887.97	-0.00119574
1897.61	-0.00154742
1907.25	-0.00142708
1916.9	-0.00146795
1926.54	-0.00205536
1936.18	-0.0020724
1945.82	-0.0019521
1955.46	-0.00228895
1965.11	-0.00149177
1974.75	-0.000316178
1984.39	0.000883105
1994.04	-0.00152318
2003.68	-0.00101659
2013.32	-0.000567426
2022.96	0.00011515
2032.6	0.00169252
2042.25	0.00157731
2051.89	0.00109137
2061.53	-0.00183938
2071.17	-5.91516e-05
2080.82	-0.000316116
2090.46	-0.000966918
2100.1	0.000204242
2109.74	-0.000812879
2119.39	-0.000183983
2129.03	-6.49537e-05
2138.67	0.00283489
2148.31	0.00224969
2157.95	0.00622404
2167.6	0.00573147
2177.24	0.00477987
2186.88	0.00331109
2196.52	0.00260661
2206.17	0.00171517
2215.81	0.00152697
2225.45	0.000154836
2235.09	0.00258676
2244.74	0.00189928
2254.38	0.000440154
2264.02	0.000423207
2273.66	0.000886633
2283.3	0.000873759
2292.95	0.00062743
2302.59	-0.000115656
2312.23	-0.000586031
2321.87	-8.95222e-05
2331.52	-0.00123126
2341.16	-0.000814751
2350.8	-0.000675611
2360.44	-0.000397492
2370.09	-0.000467348
2379.73	-0.000398019
2389.37	-0.000367187
2399.01	0.000174562
2408.66	0.00070419
2418.3	0.000550721
2427.94	0.00113646
2437.58	0.00084696
2447.22	0.000909172
2456.87	0.000786441
2466.51	0.000988252
2476.15	4.79633e-06
2485.79	0.00093794
2495.44	0.000757563
2505.08	0.00055734
2514.72	0.000254116
2524.36	-5.62361e-05
2534.01	0.000497083
2543.65	0.000789215
2553.29	0.000873484
2562.93	0.000528092
2572.57	0.000855313
2582.22	0.0011257
2591.86	0.00147796
2601.5	0.00164867
2611.14	0.00129622
2620.79	0.00170839
2630.43	0.00176718
2640.07	0.00191908
2649.71	0.00129397
2659.36	0.00079466
2669	0.000487143
2678.64	0.000521114
2688.28	0.000764594
2697.93	0.000717687
2707.57	0.000952661
2717.21	0.00136501
2726.85	0.00104002
2736.49	0.00134492
2746.14	0.000688592
2755.78	0.000986509
2765.42	0.00109106
2775.06	0.00130712
2784.71	0.00128076
2794.35	0.00151037
2803.99	0.00168055
2813.63	0.00144051
2823.28	0.00198151
2832.92	0.00136764
2842.56	0.00165865
2852.2	0.00137785
2861.84	0.00171245
2871.49	0.00183721
2881.13	0.00254945
2890.77	0.00217894
2900.41	0.00211094
2910.06	0.00240395
2919.7	0.00254547
2929.34	0.00261456
2938.98	0.00214624
2948.62	0.00180261
2958.27	0.00210654
2967.91	0.00167945
2977.55	0.00191775
2987.2	0.00207336
2996.84	0.00190071
3006.48	0.00245393
3016.12	0.00234012
3025.76	0.00185733
3035.41	0.0023343
3045.05	0.00289845
3054.69	0.00237863
3064.33	0.00234286
3073.98	0.00308776
3083.62	0.0030035
3093.26	0.00302253
3102.9	0.00294379
3112.55	0.00419762
3122.19	0.00424984
3131.83	0.00368328
3141.47	0.00501358
3151.11	0.00433431
3160.76	0.00507018
3170.4	0.00469815
3180.04	0.00534542
3189.68	0.00638196
3199.33	0.00514323
3208.97	0.00575102
3218.61	0.00553992
3228.25	0.00553762
3237.9	0.00649635
3247.54	0.00557183
3257.18	0.0053143
3266.82	0.00642833
3276.47	0.00677028
3286.11	0.00600835
3295.75	0.00544585
3305.39	0.0058187
3315.03	0.00646809
3324.68	0.00594853
3334.32	0.00627923
3343.96	0.00670565
3353.6	0.00701719
3363.25	0.00658691
3372.89	0.00680357
3382.53	0.00663878
3392.17	0.00630194
3401.82	0.00747961
3411.46	0.00665159
3421.1	0.00682919
3430.74	0.00751314
3440.39	0.00658696
3450.03	0.00762667
3459.67	0.00629953
3469.31	0.00685217
3478.95	0.00663846
3488.6	0.00644207
3498.24	0.006904
3507.88	0.00639992
3517.52	0.00675741
3527.17	0.00647019
3536.81	0.00553387
3546.45	0.00576311
3556.09	0.00594887
3565.74	0.00586537
3575.38	0.00505897
3585.02	0.00510478
3594.66	0.0049634
3604.3	0.0057669
3613.95	0.00522371
3623.59	0.00429898
3633.23	0.00385458
3642.87	0.00314326
3652.52	0.0020202
3662.16	0.00109408
3671.8	0.000455411
3681.44	0.00183793
3691.09	0.00156743
3700.73	0.0022712
3710.37	0.00319457
3720.01	0.00216103
3729.66	0.0023711
3739.3	0.00284225
3748.94	0.00342881
3758.58	0.00335571
3768.22	0.00346923
3777.87	0.00226065
3787.51	0.00356542
3797.15	0.00169439
3806.79	0.00411954
3816.44	0.00331588
3826.08	0.00322211
3835.72	0.00212935
3845.36	0.00197253
3855.01	0.00165311
3864.65	0.00148117
3874.29	0.00232118
3883.93	0.00163966
3893.57	0.00187386
3903.22	0.00259645
3912.86	0.00185093
3922.5	0.00431762
3932.14	0.00310364
3941.79	0.00222285
3951.43	0.000890926
3961.07	0.00300215
3970.71	0.00251184
3980.36	0.00199527
3990	0.0029214
3999.64	0.00194127
