Measurement: Infrared, Infrared Data Processed
Mineral: Minium
Rruff sample: R050426
Ideal chemistry: Pb^2+^_2_Pb^4+^O_4_
Locality: El Chichi mine, Culiacan, Sinalog, Mexico
Source: University of Arizona Mineral Museum
Description: Orange earthy coating
Measured chemistry: Pb^2+^_2.00_Pb^4+^_1.00_O_4_
x	intensity
399.193	0.330061
408.835	0.369662
418.477	0.369691
428.12	0.336962
437.762	0.312497
447.404	0.292442
457.047	0.257403
466.689	0.235065
476.331	0.225195
485.974	0.225754
495.616	0.22346
505.258	0.224086
514.901	0.221093
524.543	0.211253
534.185	0.166712
543.828	0.126687
553.47	0.101639
563.112	0.0929072
572.755	0.0913211
582.397	0.0917706
592.039	0.090408
601.682	0.0933207
611.324	0.0954565
620.966	0.0991017
630.609	0.103779
640.251	0.104949
649.893	0.106412
659.536	0.111285
669.178	0.120338
678.82	0.149673
688.463	0.129417
698.105	0.131916
707.747	0.120676
717.39	0.122167
727.032	0.126786
736.674	0.134949
746.317	0.142032
755.959	0.154662
765.601	0.175743
775.244	0.204857
784.886	0.196451
794.528	0.211776
804.171	0.183657
813.813	0.143683
823.455	0.141254
833.098	0.154011
842.74	0.168197
852.382	0.161338
862.025	0.174424
871.667	0.239341
881.309	0.309886
890.952	0.20905
900.594	0.20822
910.236	0.227207
919.879	0.246686
929.521	0.270351
939.163	0.295361
948.806	0.319574
958.448	0.350317
968.09	0.379591
977.733	0.404206
987.375	0.428546
997.017	0.455151
1006.66	0.47928
1016.3	0.50849
1025.94	0.547952
1035.59	0.631168
1045.23	0.749459
1054.87	0.523866
1064.51	0.423031
1074.16	0.46329
1083.8	0.499194
1093.44	0.434982
1103.08	0.327247
1112.72	0.288506
1122.37	0.269527
1132.01	0.260244
1141.65	0.250142
1151.3	0.238471
1160.94	0.239962
1170.58	0.23242
1180.22	0.222071
1189.86	0.212128
1199.51	0.203029
1209.15	0.196261
1218.79	0.194338
1228.43	0.196867
1238.08	0.20335
1247.72	0.213218
1257.36	0.228583
1267	0.249553
1276.64	0.266991
1286.29	0.268075
1295.93	0.282453
1305.57	0.305204
1315.21	0.325672
1324.86	0.342276
1334.5	0.355907
1344.14	0.367063
1353.78	0.384983
1363.43	0.41317
1373.07	0.470751
1382.71	0.495565
1392.35	0.499373
1401.99	0.505001
1411.64	0.492289
1421.28	0.479255
1430.92	0.465805
1440.57	0.441736
1450.21	0.411465
1459.85	0.37055
1469.49	0.331888
1479.13	0.29849
1488.78	0.263187
1498.42	0.236606
1508.06	0.225906
1517.7	0.225588
1527.35	0.228209
1536.99	0.228406
1546.63	0.227949
1556.27	0.225769
1565.91	0.222853
1575.56	0.220452
1585.2	0.221469
1594.84	0.221573
1604.48	0.22347
1614.13	0.226204
1623.77	0.229872
1633.41	0.2334
1643.05	0.237877
1652.7	0.240153
1662.34	0.241836
1671.98	0.24178
1681.62	0.24007
1691.27	0.240084
1700.91	0.240951
1710.55	0.245653
1720.19	0.248788
1729.84	0.256556
1739.48	0.250057
1749.12	0.248753
1758.76	0.252099
1768.4	0.25591
1778.05	0.260374
1787.69	0.263773
1797.33	0.266305
1806.97	0.269468
1816.62	0.272304
1826.26	0.276231
1835.9	0.280394
1845.54	0.284588
1855.18	0.288938
1864.83	0.294979
1874.47	0.299334
1884.11	0.303601
1893.75	0.308239
1903.4	0.313329
1913.04	0.318224
1922.68	0.324611
1932.32	0.323997
1941.97	0.323638
1951.61	0.326477
1961.25	0.327482
1970.89	0.332382
1980.54	0.333439
1990.18	0.336682
1999.82	0.336847
2009.46	0.342696
2019.11	0.345338
2028.75	0.34606
2038.39	0.351197
2048.03	0.357679
2057.67	0.356248
2067.32	0.36198
2076.96	0.3678
2086.6	0.366643
2096.24	0.375361
2105.89	0.377196
2115.53	0.382207
2125.17	0.384515
2134.81	0.388564
2144.45	0.391852
2154.1	0.385585
2163.74	0.395342
2173.38	0.400174
2183.02	0.407525
2192.67	0.408391
2202.31	0.414726
2211.95	0.420705
2221.59	0.426597
2231.24	0.424924
2240.88	0.430974
2250.52	0.437198
2260.16	0.439867
2269.8	0.443545
2279.45	0.443566
2289.09	0.448032
2298.73	0.449286
2308.38	0.454527
2318.02	0.456525
2327.66	0.459655
2337.3	0.4636
2346.94	0.463905
2356.59	0.47205
2366.23	0.475621
2375.87	0.4788
2385.51	0.48185
2395.16	0.488076
2404.8	0.49438
2414.44	0.500251
2424.08	0.50111
2433.72	0.506841
2443.37	0.50906
2453.01	0.514275
2462.65	0.519646
2472.29	0.526141
2481.94	0.532962
2491.58	0.53861
2501.22	0.542465
2510.86	0.544733
2520.51	0.549091
2530.15	0.555321
2539.79	0.559249
2549.43	0.560829
2559.07	0.564069
2568.72	0.56985
2578.36	0.574285
2588	0.577415
2597.64	0.583751
2607.29	0.586709
2616.93	0.59365
2626.57	0.59842
2636.21	0.603946
2645.86	0.608567
2655.5	0.614926
2665.14	0.623156
2674.78	0.630782
2684.43	0.640761
2694.07	0.651477
2703.71	0.660932
2713.35	0.668577
2722.99	0.679512
2732.64	0.686771
2742.28	0.694124
2751.92	0.702072
2761.56	0.708683
2771.21	0.715502
2780.85	0.726387
2790.49	0.740029
2800.13	0.758141
2809.78	0.774851
2819.42	0.793687
2829.06	0.81469
2838.7	0.8392
2848.34	0.865586
2857.99	0.90016
2867.63	0.947497
2877.27	0.974257
2886.91	0.970219
2896.56	0.957846
2906.2	0.932425
2915.84	0.931079
2925.48	0.945674
2935.13	0.918516
2944.77	0.901455
2954.41	0.932987
2964.05	1.0598
2973.7	1.15056
2983.34	0.906197
2992.98	0.795485
3002.62	0.782235
3012.26	0.784586
3021.91	0.795187
3031.55	0.806135
3041.19	0.818207
3050.83	0.833265
3060.48	0.846112
3070.12	0.859676
3079.76	0.878934
3089.4	0.890583
3099.05	0.906938
3108.69	0.926655
3118.33	0.938145
3127.97	0.959723
3137.61	0.977793
3147.26	0.997934
3156.9	1.01985
3166.54	1.04069
3176.18	1.06373
3185.83	1.08512
3195.47	1.10758
3205.11	1.13092
3214.75	1.15223
3224.4	1.17643
3234.04	1.19398
3243.68	1.21515
3253.32	1.22876
3262.97	1.24072
3272.61	1.2573
3282.25	1.26711
3291.89	1.27319
3301.53	1.27702
3311.18	1.28416
3320.82	1.28161
3330.46	1.28107
3340.1	1.27126
3349.75	1.25944
3359.39	1.24626
3369.03	1.2281
3378.67	1.21157
3388.32	1.19175
3397.96	1.16694
3407.6	1.13859
3417.24	1.12054
3426.89	1.09476
3436.53	1.07069
3446.17	1.04475
3455.81	1.02867
3465.45	1.00572
3475.1	0.991445
3484.74	0.96923
3494.38	0.956713
3504.02	0.941971
3513.67	0.928837
3523.31	0.917689
3532.95	0.903191
3542.59	0.892875
3552.24	0.880085
3561.88	0.869119
3571.52	0.869279
3581.16	0.859474
3590.8	0.861129
3600.45	0.85879
3610.09	0.859047
3619.73	0.860957
3629.37	0.857081
3639.02	0.859651
3648.66	0.851949
3658.3	0.855813
3667.94	0.863016
3677.59	0.864271
3687.23	0.863249
3696.87	0.863082
3706.51	0.868586
3716.16	0.865927
3725.8	0.874693
3735.44	0.884805
3745.08	0.890179
3754.72	0.896698
3764.37	0.900747
3774.01	0.908726
3783.65	0.913747
3793.29	0.909479
3802.94	0.921417
3812.58	0.923921
3822.22	0.930897
3831.86	0.933176
3841.51	0.945388
3851.15	0.945084
3860.79	0.949039
3870.43	0.959048
3880.07	0.964655
3889.72	0.972159
3899.36	0.97885
3909	0.972309
3918.64	0.988875
3928.29	0.989997
3937.93	0.998862
3947.57	1.00485
3957.21	1.00705
3966.86	1.01357
3976.5	1.02288
3986.14	1.02198
3995.78	1.0333
