Measurement: Infrared, Infrared Data Processed
Mineral: Mooreite
Rruff sample: R060089
Ideal chemistry: Mg_15_(S^6+^O_4_)_2_(OH)_26_8H_2_O
Locality: Sterling Hill, New Jersey, USA
Source: University of Arizona Mineral Museum
Description: Tan fragment showing well-developed cleavage
Measured chemistry: Mg_9.00_Zn_4.00_(Mn^2+^_1.85_Mg_0.15_)_Σ=2_(S_1.00_O_4_)_2_(OH)_26_·8H_2_O
x	intensity
399.193	0.253265
408.835	0.250607
418.477	0.199317
428.12	0.182629
437.762	0.156994
447.404	0.150259
457.047	0.129609
466.689	0.118161
476.331	0.116851
485.974	0.123141
495.616	0.145639
505.258	0.174178
514.901	0.190246
524.543	0.192841
534.185	0.196627
543.828	0.200472
553.47	0.182
563.112	0.157714
572.755	0.139911
582.397	0.127383
592.039	0.118332
601.682	0.112953
611.324	0.120062
620.966	0.131121
630.609	0.129471
640.251	0.121372
649.893	0.117552
659.536	0.116982
669.178	0.114806
678.82	0.106641
688.463	0.0954664
698.105	0.0852036
707.747	0.0782183
717.39	0.0718638
727.032	0.0664109
736.674	0.0651478
746.317	0.0675504
755.959	0.0715531
765.601	0.0721055
775.244	0.0706466
784.886	0.0699661
794.528	0.0692476
804.171	0.0674455
813.813	0.0653831
823.455	0.0626892
833.098	0.0608823
842.74	0.0592581
852.382	0.0571999
862.025	0.0536561
871.667	0.0509515
881.309	0.0503243
890.952	0.0490066
900.594	0.0453688
910.236	0.0412938
919.879	0.03824
929.521	0.0363001
939.163	0.0369955
948.806	0.0411387
958.448	0.0466994
968.09	0.0494425
977.733	0.0497466
987.375	0.0438507
997.017	0.0387098
1006.66	0.0379248
1016.3	0.0403883
1025.94	0.0449835
1035.59	0.0532478
1045.23	0.0682387
1054.87	0.0982376
1064.51	0.152309
1074.16	0.221487
1083.8	0.257817
1093.44	0.243058
1103.08	0.225718
1112.72	0.198088
1122.37	0.148804
1132.01	0.101834
1141.65	0.0623966
1151.3	0.0356713
1160.94	0.0229917
1170.58	0.0166973
1180.22	0.0127124
1189.86	0.00986848
1199.51	0.0079242
1209.15	0.00677687
1218.79	0.00591706
1228.43	0.00532445
1238.08	0.00510687
1247.72	0.0051454
1257.36	0.00516329
1267	0.00555378
1276.64	0.00628114
1286.29	0.00663079
1295.93	0.00681637
1305.57	0.0071275
1315.21	0.00708261
1324.86	0.00773068
1334.5	0.00819157
1344.14	0.00895555
1353.78	0.00988577
1363.43	0.0107426
1373.07	0.0119863
1382.71	0.0133943
1392.35	0.014631
1401.99	0.015891
1411.64	0.0165082
1421.28	0.0163754
1430.92	0.0169572
1440.57	0.0171116
1450.21	0.0171088
1459.85	0.0168539
1469.49	0.017222
1479.13	0.0181076
1488.78	0.0181959
1498.42	0.0186635
1508.06	0.0178834
1517.7	0.0189647
1527.35	0.0194148
1536.99	0.019281
1546.63	0.0199641
1556.27	0.0190475
1565.91	0.0208593
1575.56	0.0197769
1585.2	0.0222118
1594.84	0.0231186
1604.48	0.0233658
1614.13	0.0228617
1623.77	0.0222137
1633.41	0.0217659
1643.05	0.0218113
1652.7	0.0178009
1662.34	0.0203901
1671.98	0.0194007
1681.62	0.0178732
1691.27	0.017191
1700.91	0.0133968
1710.55	0.0142277
1720.19	0.0125187
1729.84	0.011909
1739.48	0.0101088
1749.12	0.00910512
1758.76	0.0099408
1768.4	0.00930807
1778.05	0.00967743
1787.69	0.00966939
1797.33	0.00892597
1806.97	0.00889987
1816.62	0.00857855
1826.26	0.0089186
1835.9	0.00849972
1845.54	0.00856931
1855.18	0.00912997
1864.83	0.00889107
1874.47	0.00881203
1884.11	0.00865983
1893.75	0.00932959
1903.4	0.00924475
1913.04	0.00935629
1922.68	0.00952663
1932.32	0.00980634
1941.97	0.00948029
1951.61	0.009837
1961.25	0.0109369
1970.89	0.0106603
1980.54	0.0141268
1990.18	0.0119375
1999.82	0.01212
2009.46	0.012667
2019.11	0.0126503
2028.75	0.0122435
2038.39	0.0132157
2048.03	0.0128393
2057.67	0.0117897
2067.32	0.0111849
2076.96	0.012588
2086.6	0.012338
2096.24	0.0117105
2105.89	0.0123983
2115.53	0.0104346
2125.17	0.0101759
2134.81	0.00778158
2144.45	0.00780707
2154.1	0.00721096
2163.74	0.0107644
2173.38	0.0101572
2183.02	0.0108661
2192.67	0.0109616
2202.31	0.0119646
2211.95	0.0114716
2221.59	0.0118101
2231.24	0.0123499
2240.88	0.013632
2250.52	0.0140317
2260.16	0.0137794
2269.8	0.0145969
2279.45	0.0154244
2289.09	0.0151901
2298.73	0.0144473
2308.38	0.0144547
2318.02	0.0150051
2327.66	0.0144626
2337.3	0.014074
2346.94	0.0136394
2356.59	0.0138327
2366.23	0.0134012
2375.87	0.0130113
2385.51	0.012749
2395.16	0.0132352
2404.8	0.0132182
2414.44	0.0141476
2424.08	0.0138326
2433.72	0.0139547
2443.37	0.0142928
2453.01	0.0143274
2462.65	0.0141328
2472.29	0.0140062
2481.94	0.0139638
2491.58	0.0139492
2501.22	0.0143952
2510.86	0.0145865
2520.51	0.01408
2530.15	0.0147749
2539.79	0.0149267
2549.43	0.0153146
2559.07	0.0162797
2568.72	0.015722
2578.36	0.0158971
2588	0.0162862
2597.64	0.0164911
2607.29	0.0168459
2616.93	0.0180157
2626.57	0.0187758
2636.21	0.0184833
2645.86	0.0193974
2655.5	0.0192707
2665.14	0.0192591
2674.78	0.0197729
2684.43	0.0203398
2694.07	0.0209661
2703.71	0.0217389
2713.35	0.0227305
2722.99	0.0233157
2732.64	0.0241178
2742.28	0.0249896
2751.92	0.0256583
2761.56	0.0262857
2771.21	0.0278813
2780.85	0.0285839
2790.49	0.0296157
2800.13	0.0304469
2809.78	0.0317376
2819.42	0.0331632
2829.06	0.0346971
2838.7	0.0359806
2848.34	0.0362001
2857.99	0.0380885
2867.63	0.0397197
2877.27	0.0411444
2886.91	0.0432481
2896.56	0.0446343
2906.2	0.0460115
2915.84	0.0463719
2925.48	0.0482333
2935.13	0.0505195
2944.77	0.0531244
2954.41	0.0553
2964.05	0.0573459
2973.7	0.0591361
2983.34	0.0609357
2992.98	0.0636706
3002.62	0.0656011
3012.26	0.0690458
3021.91	0.0714604
3031.55	0.0739944
3041.19	0.077808
3050.83	0.0814622
3060.48	0.0859962
3070.12	0.0900805
3079.76	0.0942676
3089.4	0.0982279
3099.05	0.101578
3108.69	0.103337
3118.33	0.105083
3127.97	0.105634
3137.61	0.106444
3147.26	0.105669
3156.9	0.105507
3166.54	0.104285
3176.18	0.103675
3185.83	0.101792
3195.47	0.101263
3205.11	0.0997973
3214.75	0.0993622
3224.4	0.0974328
3234.04	0.0960368
3243.68	0.0953339
3253.32	0.0934235
3262.97	0.092024
3272.61	0.0914669
3282.25	0.0898883
3291.89	0.090075
3301.53	0.0890823
3311.18	0.0881997
3320.82	0.0883227
3330.46	0.0872533
3340.1	0.086115
3349.75	0.0848885
3359.39	0.0825612
3369.03	0.0812796
3378.67	0.0793774
3388.32	0.0775064
3397.96	0.0776995
3407.6	0.0777806
3417.24	0.0812783
3426.89	0.0868503
3436.53	0.0933711
3446.17	0.0964735
3455.81	0.0986263
3465.45	0.100366
3475.1	0.100505
3484.74	0.0999952
3494.38	0.0973975
3504.02	0.089213
3513.67	0.0861731
3523.31	0.0842064
3532.95	0.0862547
3542.59	0.0829833
3552.24	0.0747844
3561.88	0.0674417
3571.52	0.0567391
3581.16	0.0470339
3590.8	0.0456495
3600.45	0.0491215
3610.09	0.060611
3619.73	0.0803362
3629.37	0.0634259
3639.02	0.0560363
3648.66	0.0364095
3658.3	0.030634
3667.94	0.0314494
3677.59	0.0281095
3687.23	0.0125373
3696.87	0.0091307
3706.51	0.015643
3716.16	0.00397589
3725.8	-0.00298101
3735.44	-0.00385761
3745.08	-0.00687278
3754.72	-0.00237112
3764.37	-0.0014454
3774.01	-0.00139555
3783.65	-0.000686134
3793.29	-0.000190422
3802.94	-0.00257028
3812.58	-0.00107493
3822.22	-0.00161515
3831.86	-0.000924589
3841.51	-0.000590872
3851.15	-0.0040253
3860.79	-0.000286102
3870.43	-0.00228335
3880.07	-0.00121668
3889.72	-0.000657059
3899.36	-0.000321195
3909	0.000103087
3918.64	0.00105999
3928.29	0.000548259
3937.93	0.00047304
3947.57	0.00118171
3957.21	0.000972255
3966.86	0.00109755
3976.5	0.00045849
3986.14	0.00115148
3995.78	0.000759758
