Measurement: Infrared, Infrared Data Processed
Mineral: Muscovite
Rruff sample: R050188
Ideal chemistry: KAl_2_(Si_3_Al)O_10_(OH)_2_
Locality: Sapinero, near Blue Mesa Reservoir, Gunnison County, Colorado, USA
Source: Dave Bunk Minerals
Description: Black pseudohexagonal crystal, polytype 2M1, associated with quartz
Measured chemistry: (K_0.91_Na_0.09_)(Al_0.86_Fe^3+^_0.06_Fe^2+^_0.04_Mg_0.03_Ti_0.01_)_2_(Si_0.78_Al_0.22_)_4_O_10_(OH)_2_
x	intensity
50.1401	0.00873659
52.0686	0.00581053
53.9971	0.00744861
55.9255	0.00962328
57.854	0.00855636
59.7825	0.0081452
61.7109	0.00999196
63.6394	0.0133854
65.5679	0.0144321
67.4963	0.0147011
69.4248	0.0152214
71.3533	0.014221
73.2817	0.0147164
75.2102	0.0165284
77.1387	0.0170483
79.0671	0.0172278
80.9956	0.0189762
82.9241	0.0199479
84.8525	0.020834
86.781	0.0217964
88.7095	0.0228918
90.6379	0.022762
92.5664	0.0227913
94.4948	0.0231562
96.4233	0.0240199
98.3518	0.025292
100.28	0.0257782
102.209	0.0257252
104.137	0.0255182
106.066	0.0253606
107.994	0.0258591
109.923	0.025018
111.851	0.0238752
113.779	0.0232826
115.708	0.0225934
117.636	0.0220543
119.565	0.0222494
121.493	0.0231807
123.422	0.0238523
125.35	0.0243443
127.279	0.0247169
129.207	0.0250962
131.136	0.0257549
133.064	0.0259736
134.993	0.0261381
136.921	0.0262007
138.85	0.0257614
140.778	0.0254676
142.707	0.0250346
144.635	0.024216
146.563	0.0236364
148.492	0.0234959
150.42	0.0244638
152.349	0.0253343
154.277	0.0258367
156.206	0.0261879
158.134	0.026661
160.063	0.0273201
161.991	0.0280697
163.92	0.0281557
165.848	0.0276364
167.777	0.0273574
169.705	0.0271977
171.633	0.0269063
173.562	0.0270143
175.49	0.0272718
177.419	0.0280661
179.347	0.0290361
181.276	0.0297633
183.204	0.0302008
185.133	0.0307999
187.061	0.0311614
188.99	0.0315282
190.918	0.0320336
192.847	0.0323504
194.775	0.0325677
196.704	0.0330463
198.632	0.0332969
200.56	0.033295
202.489	0.0334437
204.417	0.0341379
206.346	0.0346774
208.274	0.0348529
210.203	0.0350163
212.131	0.0356173
214.06	0.036249
215.988	0.0367797
217.917	0.0369876
219.845	0.0371692
221.774	0.0379004
223.702	0.0386316
225.631	0.0389838
227.559	0.0391537
229.488	0.0398312
231.416	0.040898
233.344	0.0415198
235.273	0.0419533
237.201	0.0425481
239.13	0.0430645
241.058	0.0435539
242.987	0.0441399
244.915	0.0449013
246.844	0.0456186
248.772	0.0463794
250.701	0.0470591
252.629	0.0473049
254.558	0.0476507
256.486	0.0481824
258.414	0.0485919
260.343	0.0485205
262.271	0.0482726
264.2	0.04776
266.128	0.0470236
268.057	0.0462934
269.985	0.0457312
271.914	0.0459336
273.842	0.0462205
275.771	0.0464598
277.699	0.0471344
279.628	0.0478059
281.556	0.0482824
283.485	0.0488148
285.413	0.0494269
287.341	0.0500281
289.27	0.0508127
291.198	0.0513726
293.127	0.0519415
295.055	0.052793
296.984	0.0531321
298.912	0.0534679
300.841	0.053767
302.769	0.0542609
304.698	0.0547146
306.626	0.0550773
308.555	0.0555862
310.483	0.0558754
312.411	0.056272
314.34	0.0568412
316.269	0.0573767
318.197	0.0577288
320.125	0.0582626
322.054	0.0587691
323.982	0.0592418
325.911	0.0597424
327.839	0.0600376
329.768	0.0603934
331.696	0.0610107
333.625	0.0616218
335.553	0.062153
337.482	0.0627577
339.41	0.0633762
341.339	0.0637489
343.267	0.0636279
345.195	0.0635399
347.124	0.0636393
349.052	0.063642
350.981	0.0635303
352.909	0.0634568
354.838	0.0631846
356.766	0.062904
358.695	0.0632141
360.623	0.0636326
362.552	0.0641305
364.48	0.0648588
366.409	0.0655002
368.337	0.0662985
370.265	0.0670928
372.194	0.0678262
374.122	0.0683896
376.051	0.0689481
377.979	0.0693624
379.908	0.0693831
381.836	0.0694848
383.765	0.0696056
385.693	0.0697029
387.622	0.0698656
389.55	0.0701621
391.479	0.0706164
393.407	0.0710834
395.336	0.0714175
397.264	0.0719808
399.192	0.0725207
401.121	0.072855
403.049	0.0732637
404.978	0.0737769
406.906	0.0740828
408.835	0.0743704
410.763	0.0745857
412.692	0.0747471
414.62	0.0747474
416.549	0.0747739
418.477	0.0748346
420.406	0.0750046
422.334	0.0751015
424.262	0.0754626
426.191	0.0761441
428.12	0.0768258
430.048	0.0773287
431.976	0.0776297
433.905	0.0780412
435.833	0.0786827
437.762	0.0787276
439.69	0.0786978
441.619	0.078792
443.547	0.079039
445.476	0.0795183
447.404	0.080294
449.333	0.0807965
451.261	0.0812777
453.19	0.0823172
455.118	0.083068
457.046	0.0833167
458.975	0.0840115
460.903	0.0847198
462.832	0.0850086
464.76	0.0856588
466.689	0.0865132
468.617	0.0867247
470.546	0.0864773
472.474	0.0860573
474.403	0.0860138
476.331	0.0858306
478.26	0.0851842
480.188	0.0845882
482.116	0.0837234
484.045	0.0822569
485.974	0.0809618
487.902	0.0800942
489.83	0.0794683
491.759	0.0789503
493.687	0.0787969
495.616	0.0790936
497.544	0.0793253
499.473	0.0797154
501.401	0.0802914
503.33	0.081035
505.258	0.0817476
507.187	0.0822012
509.115	0.0826069
511.043	0.0831087
512.972	0.084072
514.9	0.0850674
516.829	0.0859162
518.757	0.0865214
520.686	0.0867542
522.614	0.0868748
524.543	0.0869334
526.471	0.0869334
528.4	0.0860463
530.328	0.085113
532.257	0.0840438
534.185	0.082553
536.114	0.0814741
538.042	0.0797959
539.971	0.0778638
541.899	0.0765655
543.827	0.0750745
545.756	0.0732965
547.684	0.0717462
549.613	0.0703578
551.541	0.0690601
553.47	0.0675301
555.398	0.0660498
557.327	0.064518
559.255	0.0628458
561.184	0.0613933
563.112	0.060215
565.041	0.0590224
566.969	0.0584547
568.898	0.0578228
570.826	0.0572379
572.755	0.0564962
574.683	0.0558296
576.611	0.0554993
578.54	0.0549951
580.468	0.054626
582.397	0.0541254
584.325	0.0531514
586.254	0.0523673
588.182	0.0514802
590.111	0.0505387
592.039	0.0494934
593.968	0.0486793
595.896	0.0476056
597.824	0.0464643
599.753	0.0457319
601.682	0.0450622
603.61	0.0444776
605.538	0.04385
607.467	0.0435244
609.395	0.0432084
611.324	0.0427256
613.252	0.042983
615.181	0.0431674
617.109	0.0427977
619.038	0.0426796
620.966	0.0430593
622.894	0.0435861
624.823	0.0448194
626.751	0.0460022
628.68	0.0473165
630.608	0.0484212
632.537	0.0488874
634.465	0.0486348
636.394	0.0484432
638.322	0.048235
640.251	0.0478612
642.179	0.0478992
644.108	0.0481729
646.036	0.0482132
647.965	0.0483456
649.893	0.0487301
651.822	0.0491904
653.75	0.0496429
655.678	0.0500762
657.607	0.0501315
659.535	0.0505291
661.464	0.0515667
663.392	0.0524415
665.321	0.0530191
667.249	0.0539406
669.178	0.0545904
671.106	0.0553302
673.035	0.0566281
674.963	0.0576978
676.892	0.0582698
678.82	0.0592078
680.749	0.0600375
682.677	0.060837
684.606	0.0611137
686.534	0.0610457
688.462	0.0617359
690.391	0.0627518
692.319	0.0633325
694.248	0.0643247
696.176	0.0648969
698.105	0.0658342
700.033	0.0643703
