Measurement: Infrared, Infrared Data Processed
Mineral: Natrolite
Rruff sample: R040102
Ideal chemistry: Na_2_(Si_3_Al_2_)O_10_2H_2_O
Locality: Ross' Quarry, Northland, New Zealand
Source: University of Arizona Mineral Museum
Description: Mass of colorless acicular crystals
Measured chemistry: (Na_0.92_Ca_0.02_)_2_(Si_3.03_Al_1.99_)O_10_Â·2H_2_O
x	intensity
399.193	0
408.835	0.262079
418.477	0.248397
428.12	0.142097
437.762	0.106457
447.404	0.0765131
457.047	0.0530527
466.689	0.0704743
476.331	0.114471
485.974	0.159755
495.616	0.146604
505.258	0.145593
514.901	0.124677
524.543	0.093651
534.185	0.0961969
543.828	0.102039
553.47	0.0978873
563.112	0.103845
572.755	0.140353
582.397	0.132762
592.039	0.139955
601.682	0.16434
611.324	0.159335
620.966	0.172503
630.609	0.133792
640.251	0.091207
649.893	0.0800134
659.536	0.077641
669.178	0.0788843
678.82	0.0898883
688.463	0.0703272
698.105	0.0616548
707.747	0.0493439
717.39	0.047866
727.032	0.0370908
736.674	0.0252069
746.317	0.0217142
755.959	0.0211613
765.601	0.0213788
775.244	0.0196932
784.886	0.0183007
794.528	0.0179856
804.171	0.017582
813.813	0.0188803
823.455	0.0198488
833.098	0.0226077
842.74	0.0262792
852.382	0.0310385
862.025	0.0371767
871.667	0.0453345
881.309	0.0550884
890.952	0.070079
900.594	0.0945596
910.236	0.128319
919.879	0.181789
929.521	0.258003
939.163	0.352003
948.806	0.435462
958.448	0.501747
968.09	0.446788
977.733	0.413988
987.375	0.355821
997.017	0.283743
1006.66	0.206586
1016.3	0.14472
1025.94	0.110435
1035.59	0.158046
1045.23	0.203773
1054.87	0.218084
1064.51	0.190468
1074.16	0.15137
1083.8	0.156106
1093.44	0.130784
1103.08	0.10107
1112.72	0.0749815
1122.37	0.0469407
1132.01	0.0335851
1141.65	0.0260289
1151.3	0.0201874
1160.94	0.0165601
1170.58	0.0134143
1180.22	0.0114955
1189.86	0.00983653
1199.51	0.00838536
1209.15	0.00727576
1218.79	0.00634369
1228.43	0.00571019
1238.08	0.00520731
1247.72	0.00483942
1257.36	0.00495969
1267	0.00470524
1276.64	0.00486786
1286.29	0.00475546
1295.93	0.00468405
1305.57	0.00454036
1315.21	0.00432743
1324.86	0.00466312
1334.5	0.0044714
1344.14	0.00457495
1353.78	0.00470879
1363.43	0.0048019
1373.07	0.00463284
1382.71	0.00459016
1392.35	0.0047326
1401.99	0.00509823
1411.64	0.00528901
1421.28	0.00531787
1430.92	0.00493621
1440.57	0.00493698
1450.21	0.00499946
1459.85	0.0047647
1469.49	0.00456459
1479.13	0.00421506
1488.78	0.00429211
1498.42	0.00431046
1508.06	0.00440249
1517.7	0.00467843
1527.35	0.00438
1536.99	0.00533283
1546.63	0.0058887
1556.27	0.00659005
1565.91	0.00722591
1575.56	0.00758685
1585.2	0.00874248
1594.84	0.00931069
1604.48	0.0101026
1614.13	0.0117482
1623.77	0.0168321
1633.41	0.0196054
1643.05	0.0136824
1652.7	0.00975508
1662.34	0.00824642
1671.98	0.00704693
1681.62	0.00613201
1691.27	0.00496221
1700.91	0.00471355
1710.55	0.00446707
1720.19	0.00414305
1729.84	0.00398384
1739.48	0.00325749
1749.12	0.00283393
1758.76	0.00331848
1768.4	0.00317211
1778.05	0.00311964
1787.69	0.00297537
1797.33	0.00294539
1806.97	0.00265136
1816.62	0.00207326
1826.26	0.00238152
1835.9	0.0017219
1845.54	0.00176298
1855.18	0.00164753
1864.83	0.000969813
1874.47	0.000131203
1884.11	-0.000596427
1893.75	-0.00074171
1903.4	-0.000931771
1913.04	-0.000797451
1922.68	-0.00226497
1932.32	-0.00269164
1941.97	-0.00337912
1951.61	-0.00491948
1961.25	-0.00638208
1970.89	-0.00781766
1980.54	-0.00340167
1990.18	-0.00457913
1999.82	-0.00483561
2009.46	-0.00501383
2019.11	-0.00299051
2028.75	-0.00381555
2038.39	-0.000264468
2048.03	0.000741285
2057.67	0.000567403
2067.32	0.00206435
2076.96	-0.000400542
2086.6	0.00024555
2096.24	-0.000576448
2105.89	0.0012485
2115.53	0.00151058
2125.17	0.000572045
2134.81	0.000252005
2144.45	-0.0013936
2154.1	-0.00546358
2163.74	-0.00138948
2173.38	-0.00402715
2183.02	-0.00141872
2192.67	-0.00257056
2202.31	-0.000816468
2211.95	0.000996279
2221.59	-0.000755681
2231.24	0.00101372
2240.88	0.00192399
2250.52	0.00235267
2260.16	0.00319133
2269.8	0.00411704
2279.45	0.00477776
2289.09	0.00486398
2298.73	0.00483765
2308.38	0.00472007
2318.02	0.00491579
2327.66	0.0047381
2337.3	0.00472057
2346.94	0.00431519
2356.59	0.00446118
2366.23	0.00385738
2375.87	0.00351004
2385.51	0.0044632
2395.16	0.00329247
2404.8	0.0028994
2414.44	0.00360203
2424.08	0.00392699
2433.72	0.00367659
2443.37	0.00415098
2453.01	0.00510841
2462.65	0.00422771
2472.29	0.00425462
2481.94	0.00309805
2491.58	0.00428837
2501.22	0.0042245
2510.86	0.00504569
2520.51	0.00385319
2530.15	0.0033287
2539.79	0.00425674
2549.43	0.00560538
2559.07	0.00503324
2568.72	0.00561928
2578.36	0.00487053
2588	0.00571669
2597.64	0.00415045
2607.29	0.00633614
2616.93	0.00637081
2626.57	0.00662692
2636.21	0.00628072
2645.86	0.00608977
2655.5	0.00672944
2665.14	0.00591772
2674.78	0.00516937
2684.43	0.00556258
2694.07	0.00515713
2703.71	0.00590707
2713.35	0.005964
2722.99	0.00575524
2732.64	0.00561631
2742.28	0.00643383
2751.92	0.00663816
2761.56	0.00637769
2771.21	0.00585156
2780.85	0.00619167
2790.49	0.00682228
2800.13	0.00735595
2809.78	0.00678506
2819.42	0.00686282
2829.06	0.00783203
2838.7	0.00672882
2848.34	0.00637101
2857.99	0.00711524
2867.63	0.00693389
2877.27	0.00774759
2886.91	0.00740669
2896.56	0.00731587
2906.2	0.00853015
2915.84	0.00735464
2925.48	0.00743892
2935.13	0.00723318
2944.77	0.00940447
2954.41	0.00840959
2964.05	0.00950255
2973.7	0.0106758
2983.34	0.0101465
2992.98	0.0115537
3002.62	0.0117007
3012.26	0.0125904
3021.91	0.0125719
3031.55	0.0135245
3041.19	0.0131435
3050.83	0.0134685
3060.48	0.0151046
3070.12	0.0150184
3079.76	0.0154015
3089.4	0.0159348
3099.05	0.0182512
3108.69	0.0184271
3118.33	0.0184657
3127.97	0.019419
3137.61	0.0215629
3147.26	0.0240601
3156.9	0.0249851
3166.54	0.027582
3176.18	0.0285727
3185.83	0.0297123
3195.47	0.0309441
3205.11	0.0305723
3214.75	0.0301278
3224.4	0.0303272
3234.04	0.0299719
3243.68	0.0296849
3253.32	0.030041
3262.97	0.0327324
3272.61	0.035255
3282.25	0.0388963
3291.89	0.0443691
3301.53	0.0506548
3311.18	0.0576323
3320.82	0.0648082
3330.46	0.0594162
3340.1	0.0482885
3349.75	0.0416815
3359.39	0.0395773
3369.03	0.0351981
3378.67	0.0343367
3388.32	0.0337901
3397.96	0.0323565
3407.6	0.0322218
3417.24	0.0301995
3426.89	0.0305615
3436.53	0.0306507
3446.17	0.0301021
3455.81	0.0296862
3465.45	0.0327963
3475.1	0.0293901
3484.74	0.0303679
3494.38	0.031861
3504.02	0.0364473
3513.67	0.0444811
3523.31	0.060395
3532.95	0.0775013
3542.59	0.0749143
3552.24	0.0529439
3561.88	0.0391759
3571.52	0.029168
3581.16	0.0221091
3590.8	0.0198946
3600.45	0.0169481
3610.09	0.0160501
3619.73	0.0116548
3629.37	0.00934859
3639.02	0.00829022
3648.66	0.00852311
3658.3	0.00738339
3667.94	0.0107754
3677.59	0.00578996
3687.23	0.00565273
3696.87	0.0052006
3706.51	0.00417793
3716.16	0.00597283
3725.8	0.00498273
3735.44	0.00304688
3745.08	0.00406047
3754.72	0.00548814
3764.37	0.00685329
3774.01	0.00806768
3783.65	0.00583078
3793.29	0.00631353
3802.94	0.00644652
3812.58	0.00606506
3822.22	0.00576197
3831.86	0.00675922
3841.51	0.00621049
3851.15	0.00403578
3860.79	0.00707714
3870.43	0.00403051
3880.07	0.00673298
3889.72	0.00548101
3899.36	0.00763223
3909	0.00863827
3918.64	0.00639962
3928.29	0.00795905
3937.93	0.00689632
3947.57	0.00824945
3957.21	0.00769932
3966.86	0.00611977
3976.5	0.00757321
3986.14	0.00672877
3995.78	0.00769064
