Measurement: Infrared, Infrared Data Processed
Mineral: Natrolite
Rruff sample: R040022
Ideal chemistry: Na_2_(Si_3_Al_2_)O_10_2H_2_O
Locality: Patterson, Passaic County, New Jersey, USA
Source: University of Arizona Mineral Museum
Description: White fine fibrous mass
Measured chemistry: (Na_1.87_Ca_0.08_[box]_0.05_)_Σ=2_(Si_2.97_Al_2.03_)O_10_·1.95H_2_O; H_2_O estimated by difference
x	intensity
399.193	0
408.835	0.18015
418.477	0.182558
428.12	0.111679
437.762	0.0831602
447.404	0.0631597
457.047	0.0459093
466.689	0.0569823
476.331	0.0903266
485.974	0.119418
495.616	0.109165
505.258	0.109883
514.901	0.0974145
524.543	0.0714863
534.185	0.0722755
543.828	0.0775935
553.47	0.0726723
563.112	0.07158
572.755	0.0912692
582.397	0.0907001
592.039	0.0951951
601.682	0.112551
611.324	0.116205
620.966	0.132019
630.609	0.108045
640.251	0.0749252
649.893	0.0647379
659.536	0.0606905
669.178	0.0596773
678.82	0.0716113
688.463	0.0588682
698.105	0.0505846
707.747	0.0408389
717.39	0.0417387
727.032	0.0336576
736.674	0.0219974
746.317	0.0184368
755.959	0.0179449
765.601	0.0183557
775.244	0.0182699
784.886	0.0191223
794.528	0.0196598
804.171	0.0196596
813.813	0.0216387
823.455	0.0245333
833.098	0.0264469
842.74	0.0291414
852.382	0.0315915
862.025	0.0351221
871.667	0.0401647
881.309	0.0458027
890.952	0.053055
900.594	0.0646402
910.236	0.0835628
919.879	0.113213
929.521	0.159963
939.163	0.21839
948.806	0.262754
958.448	0.337269
968.09	0.330061
977.733	0.319086
987.375	0.274552
997.017	0.222553
1006.66	0.164626
1016.3	0.11483
1025.94	0.0822096
1035.59	0.112082
1045.23	0.147053
1054.87	0.15297
1064.51	0.150153
1074.16	0.117825
1083.8	0.12088
1093.44	0.107715
1103.08	0.0878348
1112.72	0.0672823
1122.37	0.0425908
1132.01	0.0309496
1141.65	0.0233545
1151.3	0.0185523
1160.94	0.0150303
1170.58	0.0127178
1180.22	0.010789
1189.86	0.00909909
1199.51	0.00785637
1209.15	0.00670217
1218.79	0.00614272
1228.43	0.00527454
1238.08	0.00461498
1247.72	0.0042853
1257.36	0.00444083
1267	0.00418936
1276.64	0.00423346
1286.29	0.00421547
1295.93	0.00438859
1305.57	0.00432546
1315.21	0.0043597
1324.86	0.00446194
1334.5	0.00436799
1344.14	0.00470831
1353.78	0.00455115
1363.43	0.00471275
1373.07	0.00485291
1382.71	0.00479726
1392.35	0.00527483
1401.99	0.00549629
1411.64	0.00581653
1421.28	0.00583581
1430.92	0.00560802
1440.57	0.00561335
1450.21	0.00539218
1459.85	0.0053753
1469.49	0.00478503
1479.13	0.00455146
1488.78	0.00407914
1498.42	0.00422589
1508.06	0.00392205
1517.7	0.00367005
1527.35	0.00390752
1536.99	0.00391136
1546.63	0.00459111
1556.27	0.00500202
1565.91	0.00573314
1575.56	0.00638384
1585.2	0.00759734
1594.84	0.00834572
1604.48	0.00863021
1614.13	0.0097417
1623.77	0.0129555
1633.41	0.0155628
1643.05	0.0123193
1652.7	0.00925526
1662.34	0.00880914
1671.98	0.00551875
1681.62	0.00446117
1691.27	0.0038333
1700.91	0.00325328
1710.55	0.00286101
1720.19	0.00282555
1729.84	0.00276801
1739.48	0.00220705
1749.12	0.00156402
1758.76	0.00225413
1768.4	0.00237614
1778.05	0.0022158
1787.69	0.00191848
1797.33	0.00154351
1806.97	0.00115785
1816.62	0.00154545
1826.26	0.00140179
1835.9	0.00100596
1845.54	0.000534966
1855.18	0.000691126
1864.83	-0.000297113
1874.47	-0.000536116
1884.11	-0.00110263
1893.75	-0.00085657
1903.4	-0.00108564
1913.04	-0.00209972
1922.68	-0.00286442
1932.32	-0.00486436
1941.97	-0.0046027
1951.61	-0.00503145
1961.25	-0.00623641
1970.89	-0.00512249
1980.54	-0.00337126
1990.18	-0.00360046
1999.82	-0.00353899
2009.46	-0.00528553
2019.11	-0.00547546
2028.75	-0.00486631
2038.39	-0.00144046
2048.03	-0.000830474
2057.67	0.00131161
2067.32	-0.000116302
2076.96	-0.000949297
2086.6	-0.000445184
2096.24	-0.000158681
2105.89	-0.000413045
2115.53	-0.0001235
2125.17	-0.000510516
2134.81	-0.00177954
2144.45	-0.00515563
2154.1	-0.00661597
2163.74	-0.000610946
2173.38	-0.00145746
2183.02	-0.000327942
2192.67	-0.000418795
2202.31	-0.00043348
2211.95	-0.00116848
2221.59	0.000658598
2231.24	0.00149512
2240.88	0.0039601
2250.52	0.00162171
2260.16	0.00181785
2269.8	0.00393531
2279.45	0.00297029
2289.09	0.00432312
2298.73	0.00341651
2308.38	0.00383499
2318.02	0.00417627
2327.66	0.00326657
2337.3	0.00259926
2346.94	0.00292359
2356.59	0.00314384
2366.23	0.00254888
2375.87	0.00194885
2385.51	0.00295742
2395.16	0.00231099
2404.8	0.00264871
2414.44	0.00306523
2424.08	0.00361523
2433.72	0.00273545
2443.37	0.00222694
2453.01	0.00296518
2462.65	0.00263731
2472.29	0.0029263
2481.94	0.00174763
2491.58	0.00376622
2501.22	0.00196342
2510.86	0.00141222
2520.51	0.00238173
2530.15	0.00319844
2539.79	0.0025849
2549.43	0.00148566
2559.07	0.0030038
2568.72	0.00267362
2578.36	0.00395256
2588	0.00340288
2597.64	0.00334666
2607.29	0.0037065
2616.93	0.00346542
2626.57	0.00380515
2636.21	0.00379124
2645.86	0.00416113
2655.5	0.00327909
2665.14	0.00309601
2674.78	0.00330698
2684.43	0.00315987
2694.07	0.00314946
2703.71	0.00323502
2713.35	0.00310439
2722.99	0.00258217
2732.64	0.00303784
2742.28	0.00326192
2751.92	0.00348452
2761.56	0.00306999
2771.21	0.0032419
2780.85	0.00337301
2790.49	0.00326816
2800.13	0.00407139
2809.78	0.00396921
2819.42	0.00405059
2829.06	0.00387541
2838.7	0.0032104
2848.34	0.00374221
2857.99	0.00356673
2867.63	0.00505852
2877.27	0.00433351
2886.91	0.00545189
2896.56	0.00452541
2906.2	0.00430092
2915.84	0.00338274
2925.48	0.00337497
2935.13	0.00406271
2944.77	0.004376
2954.41	0.00513598
2964.05	0.00578071
2973.7	0.00712257
2983.34	0.00701964
2992.98	0.00661355
3002.62	0.00775048
3012.26	0.00813004
3021.91	0.00856356
3031.55	0.00920574
3041.19	0.00949736
3050.83	0.00910724
3060.48	0.00967146
3070.12	0.0108816
3079.76	0.011033
3089.4	0.0112271
3099.05	0.0110555
3108.69	0.0129721
3118.33	0.0141211
3127.97	0.0143215
3137.61	0.0148682
3147.26	0.0169217
3156.9	0.0184849
3166.54	0.0200342
3176.18	0.0228557
3185.83	0.0221413
3195.47	0.0225781
3205.11	0.0229103
3214.75	0.0232938
3224.4	0.022123
3234.04	0.0227275
3243.68	0.0218623
3253.32	0.0230628
3262.97	0.0218773
3272.61	0.0235709
3282.25	0.0281274
3291.89	0.0310214
3301.53	0.0367796
3311.18	0.0440863
3320.82	0.0524467
3330.46	0.046812
3340.1	0.0383638
3349.75	0.0329987
3359.39	0.031383
3369.03	0.0279836
3378.67	0.0276634
3388.32	0.0280441
3397.96	0.0276841
3407.6	0.0241337
3417.24	0.023666
3426.89	0.0225498
3436.53	0.0226819
3446.17	0.0228838
3455.81	0.02319
3465.45	0.0220264
3475.1	0.0225219
3484.74	0.0220368
3494.38	0.0248094
3504.02	0.0261219
3513.67	0.0345239
3523.31	0.0485739
3532.95	0.0652275
3542.59	0.061719
3552.24	0.0413262
3561.88	0.0302626
3571.52	0.0227991
3581.16	0.0149815
3590.8	0.0132824
3600.45	0.0129211
3610.09	0.00778881
3619.73	0.00807123
3629.37	0.00574407
3639.02	0.00741993
3648.66	0.00591339
3658.3	0.0052616
3667.94	0.000608491
3677.59	0.0040159
3687.23	0.00549736
3696.87	0.00500129
3706.51	0.00440595
3716.16	0.00290419
3725.8	0.00216562
3735.44	0.00418099
3745.08	0.00248956
3754.72	0.00467187
3764.37	0.00449037
3774.01	0.00478554
3783.65	0.00447569
3793.29	0.00524549
3802.94	0.00141289
3812.58	0.00522346
3822.22	0.00469952
3831.86	0.00472001
3841.51	0.00563751
3851.15	0.00468057
3860.79	0.00474775
3870.43	0.00228641
3880.07	0.00236171
3889.72	0.00399773
3899.36	0.00343055
3909	0.00690927
3918.64	0.00104456
3928.29	0.00462844
3937.93	0.00467293
3947.57	0.0066186
3957.21	0.00454186
3966.86	0.00486995
3976.5	0.00122688
3986.14	0.00298718
3995.78	0.00482748
