Measurement: Infrared, Infrared Data Processed
Mineral: Newberyite
Rruff sample: R050513
Ideal chemistry: Mg(PO_3_OH)3H_2_O
Locality: Australia
Source: American Museum of Natural History
Description: An aggregate of beige fragments
Measured chemistry: (Mg_0.98_Mn_0.01_Ca_0.01_)_Σ=1_(P_1.00_O_3_OH)·3H_2_O
x	intensity
399.193	0.116241
408.835	0.100535
418.477	0.100586
428.12	0.0921743
437.762	0.0855231
447.404	0.0829078
457.047	0.0836443
466.689	0.0886372
476.331	0.102054
485.974	0.128691
495.616	0.166769
505.258	0.185393
514.901	0.162931
524.543	0.1492
534.185	0.139832
543.828	0.134942
553.47	0.128274
563.112	0.093738
572.755	0.0785281
582.397	0.0838665
592.039	0.0952591
601.682	0.10109
611.324	0.0995771
620.966	0.0990426
630.609	0.102345
640.251	0.108473
649.893	0.111035
659.536	0.109432
669.178	0.107278
678.82	0.106208
688.463	0.104423
698.105	0.0992115
707.747	0.0930094
717.39	0.0884668
727.032	0.0851808
736.674	0.082121
746.317	0.0783259
755.959	0.073558
765.601	0.0667855
775.244	0.0584651
784.886	0.0511816
794.528	0.045149
804.171	0.0410617
813.813	0.0382671
823.455	0.0368027
833.098	0.0365528
842.74	0.0382535
852.382	0.0426878
862.025	0.0528512
871.667	0.0721516
881.309	0.0933786
890.952	0.089442
900.594	0.0738837
910.236	0.0474556
919.879	0.0321443
929.521	0.028578
939.163	0.0287111
948.806	0.0319276
958.448	0.036789
968.09	0.0438841
977.733	0.0553209
987.375	0.0750441
997.017	0.10282
1006.66	0.168666
1016.3	0.265645
1025.94	0.22951
1035.59	0.162841
1045.23	0.16412
1054.87	0.232074
1064.51	0.210494
1074.16	0.168373
1083.8	0.131046
1093.44	0.0962355
1103.08	0.0660673
1112.72	0.0499822
1122.37	0.0456324
1132.01	0.0499358
1141.65	0.0644039
1151.3	0.0985772
1160.94	0.163898
1170.58	0.150619
1180.22	0.0869475
1189.86	0.0553416
1199.51	0.0378242
1209.15	0.0344414
1218.79	0.0442085
1228.43	0.0670653
1238.08	0.0741886
1247.72	0.0485053
1257.36	0.0277907
1267	0.0193667
1276.64	0.0155875
1286.29	0.0133954
1295.93	0.0121705
1305.57	0.0116843
1315.21	0.011264
1324.86	0.0109616
1334.5	0.0107042
1344.14	0.0107478
1353.78	0.010618
1363.43	0.01071
1373.07	0.0108602
1382.71	0.0112675
1392.35	0.011651
1401.99	0.0123435
1411.64	0.0128378
1421.28	0.013571
1430.92	0.0141119
1440.57	0.014573
1450.21	0.0148995
1459.85	0.0151096
1469.49	0.0148438
1479.13	0.0152126
1488.78	0.0153097
1498.42	0.0153611
1508.06	0.0157888
1517.7	0.0155724
1527.35	0.0156648
1536.99	0.0161031
1546.63	0.0163503
1556.27	0.0172084
1565.91	0.0178492
1575.56	0.0192328
1585.2	0.0202294
1594.84	0.0220488
1604.48	0.0247024
1614.13	0.0285493
1623.77	0.0343676
1633.41	0.0449195
1643.05	0.0681011
1652.7	0.080132
1662.34	0.0592533
1671.98	0.0505701
1681.62	0.0479902
1691.27	0.0496865
1700.91	0.0518975
1710.55	0.0422269
1720.19	0.0276658
1729.84	0.0170399
1739.48	0.0109499
1749.12	0.00770811
1758.76	0.00677652
1768.4	0.00640916
1778.05	0.00565955
1787.69	0.00501835
1797.33	0.00495054
1806.97	0.00437052
1816.62	0.0043643
1826.26	0.00454022
1835.9	0.00424826
1845.54	0.0045348
1855.18	0.00448415
1864.83	0.00424762
1874.47	0.00464493
1884.11	0.00406315
1893.75	0.0046329
1903.4	0.0050824
1913.04	0.00483858
1922.68	0.00498245
1932.32	0.00523471
1941.97	0.00581022
1951.61	0.00540029
1961.25	0.00599354
1970.89	0.00582535
1980.54	0.00650951
1990.18	0.00423248
1999.82	0.00544139
2009.46	0.00507571
2019.11	0.00313634
2028.75	0.00453102
2038.39	0.00300841
2048.03	0.00389214
2057.67	0.00437498
2067.32	0.00490373
2076.96	0.00519589
2086.6	0.00465793
2096.24	0.0053204
2105.89	0.00555358
2115.53	0.00613586
2125.17	0.0062377
2134.81	0.00609892
2144.45	0.00536397
2154.1	0.0076833
2163.74	0.00944222
2173.38	0.00849164
2183.02	0.0104043
2192.67	0.0105929
2202.31	0.0116136
2211.95	0.0126425
2221.59	0.0134546
2231.24	0.0134688
2240.88	0.0149397
2250.52	0.0141834
2260.16	0.014561
2269.8	0.015519
2279.45	0.0165664
2289.09	0.0168647
2298.73	0.0166356
2308.38	0.017161
2318.02	0.018585
2327.66	0.0200976
2337.3	0.0208153
2346.94	0.0205835
2356.59	0.0219736
2366.23	0.023638
2375.87	0.0241228
2385.51	0.0250521
2395.16	0.0261631
2404.8	0.0250208
2414.44	0.0243117
2424.08	0.0227364
2433.72	0.0218052
2443.37	0.0206669
2453.01	0.0209764
2462.65	0.0211048
2472.29	0.0217748
2481.94	0.0213908
2491.58	0.0202187
2501.22	0.0187601
2510.86	0.0171938
2520.51	0.0161064
2530.15	0.0161117
2539.79	0.0162888
2549.43	0.0162954
2559.07	0.0167447
2568.72	0.0172002
2578.36	0.0176602
2588	0.0176091
2597.64	0.0183848
2607.29	0.0191963
2616.93	0.0194937
2626.57	0.0198145
2636.21	0.0207869
2645.86	0.0210497
2655.5	0.0218196
2665.14	0.0230061
2674.78	0.0233573
2684.43	0.024398
2694.07	0.0257117
2703.71	0.0267656
2713.35	0.0275474
2722.99	0.0286606
2732.64	0.0303295
2742.28	0.0309462
2751.92	0.0324117
2761.56	0.0332667
2771.21	0.0345023
2780.85	0.0351114
2790.49	0.0360542
2800.13	0.0364894
2809.78	0.0373621
2819.42	0.0380211
2829.06	0.0390988
2838.7	0.0394743
2848.34	0.0380977
2857.99	0.0385198
2867.63	0.0397964
2877.27	0.0397087
2886.91	0.0396255
2896.56	0.0396856
2906.2	0.0393659
2915.84	0.0369844
2925.48	0.0364994
2935.13	0.0371884
2944.77	0.0380186
2954.41	0.0381684
2964.05	0.0376733
2973.7	0.037388
2983.34	0.0369955
2992.98	0.0372013
3002.62	0.036893
3012.26	0.0376501
3021.91	0.0376885
3031.55	0.0377964
3041.19	0.0380273
3050.83	0.0381365
3060.48	0.0396305
3070.12	0.0396421
3079.76	0.0408806
3089.4	0.0421921
3099.05	0.0437946
3108.69	0.0453142
3118.33	0.0475315
3127.97	0.0504845
3137.61	0.0532665
3147.26	0.0568146
3156.9	0.0606853
3166.54	0.0638341
3176.18	0.0685077
3185.83	0.072912
3195.47	0.0778442
3205.11	0.084352
3214.75	0.0914889
3224.4	0.0995451
3234.04	0.111961
3243.68	0.123873
3253.32	0.137433
3262.97	0.145567
3272.61	0.147442
3282.25	0.140593
3291.89	0.126007
3301.53	0.110762
3311.18	0.0992686
3320.82	0.0904604
3330.46	0.0859624
3340.1	0.0825647
3349.75	0.0808146
3359.39	0.0822687
3369.03	0.0836645
3378.67	0.084471
3388.32	0.0814007
3397.96	0.0745814
3407.6	0.0676795
3417.24	0.0623698
3426.89	0.0583992
3436.53	0.0567004
3446.17	0.0569572
3455.81	0.0593546
3465.45	0.0656951
3475.1	0.0746086
3484.74	0.0726867
3494.38	0.0634874
3504.02	0.0670905
3513.67	0.0720527
3523.31	0.0660553
3532.95	0.0530178
3542.59	0.0410759
3552.24	0.0322798
3561.88	0.0237052
3571.52	0.0164099
3581.16	0.0100576
3590.8	0.0053617
3600.45	0.00212902
3610.09	-0.000285522
3619.73	-0.00250689
3629.37	-0.00383845
3639.02	-0.00604724
3648.66	-0.00603071
3658.3	-0.00831271
3667.94	-0.00822661
3677.59	-0.00865956
3687.23	-0.00870665
3696.87	-0.0103501
3706.51	-0.00989153
3716.16	-0.00953377
3725.8	-0.010247
3735.44	-0.00951793
3745.08	-0.00895969
3754.72	-0.0111109
3764.37	-0.010449
3774.01	-0.00956988
3783.65	-0.0100369
3793.29	-0.0110756
3802.94	-0.00968796
3812.58	-0.0103512
3822.22	-0.00932063
3831.86	-0.00964634
3841.51	-0.0106399
3851.15	-0.0094866
3860.79	-0.0105318
3870.43	-0.00999948
3880.07	-0.0111196
3889.72	-0.0102277
3899.36	-0.0102127
3909	-0.010873
3918.64	-0.0104035
3928.29	-0.0109974
3937.93	-0.010512
3947.57	-0.0111377
3957.21	-0.0112985
3966.86	-0.0111116
3976.5	-0.0113738
3986.14	-0.0106606
3995.78	-0.011107
