Measurement: Infrared, Infrared Data Processed
Mineral: Olmiite
Rruff sample: R050144
Ideal chemistry: CaMn^2+^SiO_3_(OH)_2_
Locality: N'Chwaning II mine, Kuruman, South Africa
Source: Rock Currier
Description: Tan colored prismatic crystals associated with fibrous bultfonteinite, R050088
Measured chemistry: Ca_1.00_(Mn_0.98_Ca_0.02_)(Si_1.00_O_3_OH)(OH)
x	intensity
374.123	0.103199
383.765	0.0782049
393.407	0.0818216
403.05	0.0872596
412.692	0.0947562
422.334	0.113606
431.976	0.118366
441.619	0.0913892
451.261	0.073151
460.904	0.124339
470.546	0.192209
480.188	0.144622
489.83	0.137126
499.473	0.134418
509.115	0.148692
518.758	0.134135
528.4	0.0721729
538.042	0.0378544
547.684	0.0242701
557.327	0.0207449
566.969	0.0192992
576.611	0.0194836
586.254	0.0197903
595.896	0.0208445
605.538	0.0223286
615.181	0.0249213
624.823	0.0282079
634.466	0.0327573
644.108	0.040038
653.75	0.0493791
663.393	0.0591633
673.035	0.0635766
682.677	0.0624997
692.319	0.0671952
701.962	0.0813936
711.604	0.108604
721.246	0.127632
730.889	0.111544
740.531	0.085425
750.173	0.075285
759.816	0.0922283
769.458	0.140298
779.101	0.168353
788.743	0.1579
798.385	0.121232
808.028	0.126177
817.67	0.14204
827.312	0.121815
836.955	0.117482
846.597	0.180219
856.239	0.217122
865.881	0.210129
875.524	0.186614
885.166	0.125295
894.808	0.112819
904.451	0.103826
914.093	0.112647
923.736	0.138723
933.378	0.138576
943.02	0.127869
952.663	0.151968
962.305	0.212635
971.947	0.236003
981.59	0.169099
991.232	0.101358
1000.87	0.0610231
1010.52	0.0371734
1020.16	0.0239059
1029.8	0.0185426
1039.44	0.0160438
1049.09	0.0145212
1058.73	0.0131662
1068.37	0.0124486
1078.01	0.01197
1087.65	0.0113866
1097.3	0.0115437
1106.94	0.0113303
1116.58	0.0109223
1126.22	0.0113977
1135.87	0.0115761
1145.51	0.0119613
1155.15	0.0124419
1164.79	0.0126703
1174.44	0.0128001
1184.08	0.0131276
1193.72	0.0133341
1203.36	0.0129451
1213.01	0.0133046
1222.65	0.0137301
1232.29	0.0142889
1241.93	0.0146322
1251.58	0.0154139
1261.22	0.0163343
1270.86	0.0181547
1280.5	0.0208
1290.14	0.0249298
1299.79	0.0299787
1309.43	0.0341917
1319.07	0.051133
1328.71	0.0849782
1338.36	0.0694871
1348	0.0340085
1357.64	0.0226416
1367.28	0.0198782
1376.92	0.0195937
1386.57	0.019507
1396.21	0.0205832
1405.85	0.0220723
1415.49	0.0236223
1425.14	0.0246468
1434.78	0.0243107
1444.42	0.0249563
1454.06	0.0246733
1463.71	0.0250681
1473.35	0.0245364
1482.99	0.0261934
1492.63	0.0262644
1502.28	0.0263959
1511.92	0.0259332
1521.56	0.0244837
1531.2	0.0269524
1540.85	0.0249326
1550.49	0.0284778
1560.13	0.0265544
1569.77	0.0294714
1579.41	0.0314043
1589.06	0.0321826
1598.7	0.0329
1608.34	0.0337225
1617.98	0.0334562
1627.63	0.0351049
1637.27	0.0350834
1646.91	0.0356378
1656.55	0.0377053
1666.19	0.038424
1675.84	0.0381954
1685.48	0.0377051
1695.12	0.0384637
1704.77	0.0402134
1714.41	0.0407066
1724.05	0.0411165
1733.69	0.0388026
1743.33	0.0404989
1752.98	0.0406232
1762.62	0.0398889
1772.26	0.0385412
1781.9	0.0391565
1791.55	0.0374627
1801.19	0.0367401
1810.83	0.0361266
1820.47	0.035641
1830.12	0.0341392
1839.76	0.0339524
1849.4	0.0322937
1859.04	0.0323342
1868.68	0.0314897
1878.33	0.0318605
1887.97	0.0322761
1897.61	0.0314665
1907.25	0.0307275
1916.9	0.0293987
1926.54	0.0295196
1936.18	0.0277757
1945.82	0.0277458
1955.46	0.0264338
1965.11	0.0269314
1974.75	0.0275596
1984.39	0.0308781
1994.04	0.0300277
2003.68	0.0290613
2013.32	0.0317781
2022.96	0.0310162
2032.6	0.0328035
2042.25	0.032277
2051.89	0.033258
2061.53	0.0315614
2071.17	0.033216
2080.82	0.0332938
2090.46	0.0318393
2100.1	0.0328006
2109.74	0.0327958
2119.39	0.0322496
2129.03	0.0322621
2138.67	0.0333665
2148.31	0.0316008
2157.95	0.036359
2167.6	0.0384066
2177.24	0.0373558
2186.88	0.0376573
2196.52	0.0368341
2206.17	0.0383434
2215.81	0.0390816
2225.45	0.0396215
2235.09	0.0409859
2244.74	0.0407679
2254.38	0.040824
2264.02	0.041134
2273.66	0.0424483
2283.3	0.0430719
2292.95	0.0430864
2302.59	0.0430477
2312.23	0.0432108
2321.87	0.0448989
2331.52	0.0434463
2341.16	0.0437215
2350.8	0.0439227
2360.44	0.044565
2370.09	0.0441239
2379.73	0.0429241
2389.37	0.042628
2399.01	0.0430261
2408.66	0.042772
2418.3	0.0415528
2427.94	0.0405897
2437.58	0.0407402
2447.22	0.0396208
2456.87	0.0384197
2466.51	0.0371938
2476.15	0.0359396
2485.79	0.0354061
2495.44	0.0338288
2505.08	0.0333772
2514.72	0.0318148
2524.36	0.0314418
2534.01	0.030463
2543.65	0.0297719
2553.29	0.028486
2562.93	0.0279415
2572.57	0.0273398
2582.22	0.0258052
2591.86	0.0261613
2601.5	0.0247223
2611.14	0.0243959
2620.79	0.0241769
2630.43	0.0244574
2640.07	0.0239706
2649.71	0.0241278
2659.36	0.024905
2669	0.0251867
2678.64	0.0264149
2688.28	0.0283266
2697.93	0.0285664
2707.57	0.0300061
2717.21	0.031131
2726.85	0.0320285
2736.49	0.0330801
2746.14	0.0340595
2755.78	0.0342255
2765.42	0.0352282
2775.06	0.0354643
2784.71	0.0359442
2794.35	0.0362277
2803.99	0.0357858
2813.63	0.035533
2823.28	0.034731
2832.92	0.0347675
2842.56	0.034117
2852.2	0.0321586
2861.84	0.0308079
2871.49	0.0306335
2881.13	0.0292456
2890.77	0.0290997
2900.41	0.027868
2910.06	0.0277774
2919.7	0.0267336
2929.34	0.026375
2938.98	0.0248346
2948.62	0.0255313
2958.27	0.0236643
2967.91	0.0240393
2977.55	0.0231063
2987.2	0.0234657
2996.84	0.0222359
3006.48	0.0225355
3016.12	0.0225707
3025.76	0.0224034
3035.41	0.0224778
3045.05	0.0221719
3054.69	0.0221242
3064.33	0.0219152
3073.98	0.0222716
3083.62	0.0213156
3093.26	0.0212193
3102.9	0.0213132
3112.55	0.0215352
3122.19	0.0214189
3131.83	0.0210382
3141.47	0.0219673
3151.11	0.0221608
3160.76	0.0214727
3170.4	0.0219365
3180.04	0.0214545
3189.68	0.0221481
3199.33	0.0215246
3208.97	0.0221505
3218.61	0.0214726
3228.25	0.0216512
3237.9	0.021881
3247.54	0.0215171
3257.18	0.0213411
3266.82	0.0211707
3276.47	0.0205806
3286.11	0.021188
3295.75	0.0216493
3305.39	0.0222697
3315.03	0.0207116
3324.68	0.0217329
3334.32	0.0217762
3343.96	0.0211361
3353.6	0.0198725
3363.25	0.0205926
3372.89	0.0202856
3382.53	0.0214013
3392.17	0.0218701
3401.82	0.0224276
3411.46	0.0218361
3421.1	0.0229534
3430.74	0.022408
3440.39	0.0238637
3450.03	0.023998
3459.67	0.0256982
3469.31	0.0281633
3478.95	0.0351266
3488.6	0.0449662
3498.24	0.0539195
3507.88	0.0894295
3517.52	0.0509481
3527.17	0.0265118
3536.81	0.0261031
3546.45	0.0210319
3556.09	0.0153407
3565.74	0.0145902
3575.38	0.0140979
3585.02	0.0148099
3594.66	0.015687
3604.3	0.013935
3613.95	0.0141006
3623.59	0.0143345
3633.23	0.0144537
3642.87	0.0149923
3652.52	0.0143774
3662.16	0.0153688
3671.8	0.0141411
3681.44	0.0157388
3691.09	0.016102
3700.73	0.0135176
3710.37	0.0146443
3720.01	0.0139105
3729.66	0.0157819
3739.3	0.0171932
3748.94	0.0169401
3758.58	0.0168193
3768.22	0.0161712
3777.87	0.0173829
3787.51	0.0154995
3797.15	0.0153264
3806.79	0.0158455
3816.44	0.0144741
3826.08	0.017173
3835.72	0.0151065
3845.36	0.0167919
3855.01	0.0161572
3864.65	0.0148769
3874.29	0.0166667
3883.93	0.0165303
3893.57	0.0163179
3903.22	0.0163774
3912.86	0.0151805
3922.5	0.0170173
3932.14	0.0162356
3941.79	0.0164812
3951.43	0.0182864
3961.07	0.0164451
3970.71	0.015643
3980.36	0.0184095
3990	0.0159885
3999.64	0.0173032
