Measurement: Infrared, Infrared Data Processed
Mineral: Olmiite
Rruff sample: R050177
Ideal chemistry: CaMn^2+^SiO_3_(OH)_2_
Locality: N'Chwaning II mine, Kuruman, South Africa
Source: Marcus Origlieri
Description: Gray etched crystals
Measured chemistry: Ca_1.00_(Mn_0.98_Ca_0.02_)(Si_1.00_O_3_OH)(OH)
x	intensity
50.1401	0.0111777
52.0686	0.0114526
53.9971	0.00768251
55.9255	0.010787
57.854	0.0157063
59.7825	0.0147194
61.7109	0.0129948
63.6394	0.0168089
65.5679	0.0190407
67.4963	0.0189516
69.4248	0.0203924
71.3533	0.020748
73.2817	0.0204199
75.2102	0.0211248
77.1387	0.0222051
79.0671	0.0237273
80.9956	0.0252609
82.9241	0.0260018
84.8525	0.0253761
86.781	0.0244271
88.7095	0.024835
90.6379	0.026422
92.5664	0.0279425
94.4948	0.0288826
96.4233	0.0300823
98.3518	0.0319407
100.28	0.03273
102.209	0.0337618
104.137	0.0347453
106.066	0.0365776
107.994	0.0383485
109.923	0.0391425
111.851	0.0366368
113.779	0.0339002
115.708	0.0333371
117.636	0.0346889
119.565	0.0361227
121.493	0.0376725
123.422	0.0391654
125.35	0.0412317
127.279	0.0428769
129.207	0.0436174
131.136	0.0433571
133.064	0.0423738
134.993	0.0423426
136.921	0.0422415
138.85	0.0388627
140.778	0.0346908
142.707	0.0339362
144.635	0.0356848
146.563	0.0381661
148.492	0.0412107
150.42	0.0436345
152.349	0.0452617
154.277	0.0460416
156.206	0.0475903
158.134	0.0495333
160.063	0.0502183
161.991	0.0512541
163.92	0.0526679
165.848	0.0521293
167.777	0.0484542
169.705	0.0451328
171.633	0.0449763
173.562	0.0464426
175.49	0.0472671
177.419	0.0472106
179.347	0.0485755
181.276	0.0505192
183.204	0.0517104
185.133	0.0530193
187.061	0.0548828
188.99	0.0562095
190.918	0.0572651
192.847	0.058167
194.775	0.0580249
196.704	0.0559969
198.632	0.0539039
200.56	0.0537074
202.489	0.0557267
204.417	0.0574201
206.346	0.0578743
208.274	0.0566859
210.203	0.054682
212.131	0.0547866
214.06	0.056453
215.988	0.0580689
217.917	0.0597613
219.845	0.0611664
221.774	0.0622887
223.702	0.0619935
225.631	0.0613839
227.559	0.0615721
229.488	0.0622226
231.416	0.0637703
233.344	0.065053
235.273	0.0642487
237.201	0.0614064
239.13	0.0583231
241.058	0.0560395
242.987	0.0552937
244.915	0.0568818
246.844	0.0596844
248.772	0.0627099
250.701	0.0651602
252.629	0.0674829
254.558	0.068494
256.486	0.0675101
258.414	0.0660968
260.343	0.0660421
262.271	0.0670015
264.2	0.0679188
266.128	0.0686978
268.057	0.0695616
269.985	0.0706669
271.914	0.0721129
273.842	0.073348
275.771	0.0739136
277.699	0.0739001
279.628	0.0728915
281.556	0.07119
283.485	0.0688937
285.413	0.0662438
287.341	0.0642691
289.27	0.0634674
291.198	0.0637932
293.127	0.0654687
295.055	0.0679563
296.984	0.07001
298.912	0.0710646
300.841	0.071235
302.769	0.0707213
304.698	0.0692841
306.626	0.0681281
308.555	0.0680681
310.483	0.0686556
312.411	0.0698072
314.34	0.0712651
316.269	0.0726832
318.197	0.0735097
320.125	0.0743421
322.054	0.0755324
323.982	0.0761348
325.911	0.0760227
327.839	0.0757001
329.768	0.0751788
331.696	0.0742733
333.625	0.0737394
335.553	0.0740944
337.482	0.0746864
339.41	0.0749908
341.339	0.0754256
343.267	0.0768795
345.195	0.078977
347.124	0.0813082
349.052	0.0831293
350.981	0.0836778
352.909	0.0830634
354.838	0.0815762
356.766	0.0796456
358.695	0.0765755
360.623	0.0728676
362.552	0.0696661
364.48	0.0661114
366.409	0.0621638
368.337	0.0588584
370.265	0.0561758
372.194	0.0536525
374.122	0.0519352
376.051	0.0506575
377.979	0.0495571
379.908	0.0489639
381.836	0.0483449
383.765	0.0476879
385.693	0.0472794
387.622	0.0467191
389.55	0.0465888
391.479	0.0469777
393.407	0.047632
395.336	0.0484552
397.264	0.0498492
399.192	0.0516047
401.121	0.0529026
403.049	0.0535742
404.978	0.0538801
406.906	0.0539777
408.835	0.0540297
410.763	0.0545576
412.692	0.0555545
414.62	0.0569206
416.549	0.0586112
418.477	0.0602389
420.406	0.0613731
422.334	0.0625621
424.262	0.0639194
426.191	0.0652043
428.12	0.0661278
430.048	0.066607
431.976	0.0667999
433.905	0.0666258
435.833	0.0660362
437.762	0.0647623
439.69	0.0628251
441.619	0.0605524
443.547	0.0582903
445.476	0.0560304
447.404	0.0543312
449.333	0.0534646
451.261	0.0537665
453.19	0.0555086
455.118	0.0581827
457.046	0.0619873
458.975	0.0670446
460.903	0.0724127
462.832	0.077676
464.76	0.0830004
466.689	0.0874108
468.617	0.0907862
470.546	0.0919697
472.474	0.0908089
474.403	0.0888827
476.331	0.0860258
478.26	0.0825551
480.188	0.079362
482.116	0.0771579
484.045	0.076587
485.974	0.0771026
487.902	0.0772251
489.83	0.0771223
491.759	0.0770957
493.687	0.0768874
495.616	0.0764206
497.544	0.0763785
499.473	0.0766565
501.401	0.0774382
503.33	0.0787404
505.258	0.0803028
507.187	0.0820677
509.115	0.0837562
511.043	0.0850747
512.972	0.0859972
514.9	0.0860337
516.829	0.0848602
518.757	0.0824753
520.686	0.0787579
522.614	0.0737932
524.543	0.0688041
526.471	0.0641925
528.4	0.0598283
530.328	0.0557573
532.257	0.0521502
534.185	0.0487219
536.114	0.0456954
538.042	0.0433362
539.971	0.0416726
541.899	0.0404642
543.827	0.0394415
545.756	0.0384541
547.684	0.0378545
549.613	0.0374686
551.541	0.0368329
553.47	0.0363851
555.398	0.0364537
557.327	0.0364553
559.255	0.0365946
561.184	0.0370218
563.112	0.0373737
565.041	0.0372336
566.969	0.0372385
568.898	0.0372216
570.826	0.0373807
572.755	0.0377062
574.683	0.0379397
576.611	0.038407
578.54	0.0384161
580.468	0.0382034
582.397	0.0382982
584.325	0.0384437
586.254	0.0386663
588.182	0.0385021
590.111	0.038497
592.039	0.0384594
593.968	0.0384358
595.896	0.0384704
597.824	0.0385445
599.753	0.0383803
601.682	0.0377571
603.61	0.0373292
605.538	0.0373972
607.467	0.0374729
609.395	0.0372928
611.324	0.0375051
613.252	0.0380729
615.181	0.0385845
617.109	0.0392362
619.038	0.0402085
620.966	0.0413474
622.894	0.0419562
624.823	0.0429311
626.751	0.0449326
628.68	0.0478867
630.608	0.0500809
632.537	0.051166
634.465	0.0518002
636.394	0.0525242
638.322	0.0532702
640.251	0.0539812
642.179	0.0550355
644.108	0.0556639
646.036	0.0562405
647.965	0.0571446
649.893	0.0580913
651.822	0.0591007
653.75	0.0601338
655.678	0.0612323
657.607	0.062668
659.535	0.0638959
661.464	0.0650466
663.392	0.0663547
665.321	0.0674507
667.249	0.0687211
669.178	0.0698141
671.106	0.0704042
673.035	0.0711631
674.963	0.0724122
676.892	0.073415
678.82	0.0743207
680.749	0.0745946
682.677	0.0740648
684.606	0.0741502
686.534	0.0754214
688.462	0.0763104
690.391	0.0778279
692.319	0.0801188
694.248	0.0820574
696.176	0.0844052
698.105	0.086634
700.033	0.0876176
