Measurement: Infrared, Infrared Data Processed
Mineral: Orthoserpierite
Rruff sample: R050292
Ideal chemistry: CaCu^2+^_4_(S^6+^O_4_)_2_(OH)_6_3H_2_O
Locality: Platosa mine, Bermijillo, Durango, Mexico
Source: Peter Megaw
Description: Turquoise-blue bladed crystals
Measured chemistry: Ca_1.00_(Cu_3.19_Zn_0.81_)_Σ=4_(S_1.00_O_4_)_2_(OH)_6_·3H_2_O
x	intensity
374.123	0.0349698
383.765	0.0298473
393.407	0.0333078
403.05	0.0319527
412.692	0.0285398
422.334	0.0314439
431.976	0.0338714
441.619	0.0349772
451.261	0.0347357
460.904	0.0362039
470.546	0.0372096
480.188	0.0347749
489.83	0.0317596
499.473	0.0288408
509.115	0.0252297
518.758	0.0235232
528.4	0.0255572
538.042	0.0287789
547.684	0.0310479
557.327	0.0330116
566.969	0.0353887
576.611	0.0393327
586.254	0.0446591
595.896	0.0501483
605.538	0.0494336
615.181	0.0400122
624.823	0.0357602
634.466	0.0366652
644.108	0.0397024
653.75	0.0376309
663.393	0.0353035
673.035	0.036238
682.677	0.0385472
692.319	0.0398757
701.962	0.0399483
711.604	0.0379827
721.246	0.0353813
730.889	0.0331783
740.531	0.0315539
750.173	0.0302541
759.816	0.0299379
769.458	0.0291487
779.101	0.0289226
788.743	0.0296881
798.385	0.0313458
808.028	0.0329108
817.67	0.032635
827.312	0.032814
836.955	0.0312327
846.597	0.0291185
856.239	0.0260267
865.881	0.0232402
875.524	0.02077
885.166	0.0191352
894.808	0.0170556
904.451	0.0156544
914.093	0.0149613
923.736	0.0147811
933.378	0.015314
943.02	0.0162488
952.663	0.0175437
962.305	0.0191921
971.947	0.0216828
981.59	0.0264182
991.232	0.027282
1000.87	0.0239847
1010.52	0.0276998
1020.16	0.0296836
1029.8	0.0340639
1039.44	0.0411161
1049.09	0.049257
1058.73	0.0556408
1068.37	0.0554499
1078.01	0.0639447
1087.65	0.0705463
1097.3	0.0715608
1106.94	0.0596369
1116.58	0.0547504
1126.22	0.0493991
1135.87	0.0402172
1145.51	0.0343978
1155.15	0.0285253
1164.79	0.0195413
1174.44	0.0135757
1184.08	0.0110842
1193.72	0.00848287
1203.36	0.00585758
1213.01	0.00646645
1222.65	0.00652748
1232.29	0.00550211
1241.93	0.00463561
1251.58	0.00345251
1261.22	0.00206959
1270.86	0.00141458
1280.5	0.00146283
1290.14	0.00182386
1299.79	0.00148912
1309.43	0.00167068
1319.07	0.00160719
1328.71	0.00184625
1338.36	0.00204135
1348	0.0022044
1357.64	0.00265935
1367.28	0.0031561
1376.92	0.00306809
1386.57	0.00392715
1396.21	0.00415956
1405.85	0.00483178
1415.49	0.00470115
1425.14	0.00461021
1434.78	0.00465842
1444.42	0.00500397
1454.06	0.00514441
1463.71	0.00492847
1473.35	0.00491449
1482.99	0.00479804
1492.63	0.00589574
1502.28	0.0073635
1511.92	0.00528924
1521.56	0.00415878
1531.2	0.00369207
1540.85	0.00385491
1550.49	0.00331641
1560.13	0.00360695
1569.77	0.00339446
1579.41	0.00350868
1589.06	0.00372377
1598.7	0.00408673
1608.34	0.0043909
1617.98	0.00469437
1627.63	0.00497292
1637.27	0.00538779
1646.91	0.00629107
1656.55	0.00777429
1666.19	0.00772501
1675.84	0.00711417
1685.48	0.00685143
1695.12	0.00582704
1704.77	0.00466846
1714.41	0.00394121
1724.05	0.00418292
1733.69	0.00427174
1743.33	0.00238608
1752.98	0.00217613
1762.62	0.0047734
1772.26	0.00560401
1781.9	0.00404185
1791.55	0.00232796
1801.19	0.000922752
1810.83	0.000908235
1820.47	0.000720335
1830.12	0.000811014
1839.76	0.000684296
1849.4	0.000490928
1859.04	0.000922781
1868.68	0.000692256
1878.33	0.000260815
1887.97	0.000536727
1897.61	0.000222986
1907.25	0.000477361
1916.9	0.000329272
1926.54	0.000362912
1936.18	0.000208322
1945.82	0.000489104
1955.46	0.000321805
1965.11	0.000933974
1974.75	0.00127879
1984.39	0.000695475
1994.04	0.00102982
2003.68	0.000396044
2013.32	0.00231522
2022.96	0.00181911
2032.6	0.00222734
2042.25	0.00169725
2051.89	0.0014367
2061.53	0.00104218
2071.17	0.00109038
2080.82	0.00118183
2090.46	0.000907711
2100.1	0.000425321
2109.74	0.000368343
2119.39	4.60219e-05
2129.03	0.000372897
2138.67	0.000219533
2148.31	-0.000228104
2157.95	-0.000105617
2167.6	0.000598649
2177.24	8.48093e-05
2186.88	9.04179e-05
2196.52	0.000993336
2206.17	0.000992542
2215.81	0.00146087
2225.45	0.000729178
2235.09	0.00170826
2244.74	0.00198704
2254.38	0.000742933
2264.02	0.00111086
2273.66	0.00150662
2283.3	0.00137633
2292.95	0.000946596
2302.59	0.00116705
2312.23	0.00106835
2321.87	0.00233862
2331.52	0.00175069
2341.16	0.00162586
2350.8	0.00136565
2360.44	0.00172253
2370.09	0.00136754
2379.73	0.000381661
2389.37	0.000676822
2399.01	0.00067007
2408.66	0.000748068
2418.3	0.000696482
2427.94	0.000667688
2437.58	0.000161713
2447.22	0.000499869
2456.87	-0.000159648
2466.51	0.000343133
2476.15	-0.000375329
2485.79	-0.000149754
2495.44	-0.000177743
2505.08	-0.000206447
2514.72	-0.000745632
2524.36	-0.000464739
2534.01	-0.000793983
2543.65	-0.000594739
2553.29	-0.000313496
2562.93	-6.27283e-05
2572.57	-0.000486268
2582.22	-0.000387041
2591.86	-0.00023484
2601.5	-7.13191e-05
2611.14	-2.03092e-05
2620.79	0.000565163
2630.43	-0.000170245
2640.07	0.000427059
2649.71	0.000427535
2659.36	6.63123e-05
2669	0.00021396
2678.64	0.000114315
2688.28	0.00018375
2697.93	0.000321094
2707.57	0.00069836
2717.21	0.000598144
2726.85	0.000817479
2736.49	0.000801843
2746.14	0.000632862
2755.78	0.00129009
2765.42	0.00141853
2775.06	0.00101858
2784.71	0.00154637
2794.35	0.00150249
2803.99	0.00179457
2813.63	0.0018842
2823.28	0.00211348
2832.92	0.0022733
2842.56	0.00219066
2852.2	0.00161354
2861.84	0.00225319
2871.49	0.00300562
2881.13	0.00357142
2890.77	0.00347004
2900.41	0.00343807
2910.06	0.00364008
2919.7	0.00264937
2929.34	0.00254376
2938.98	0.00420875
2948.62	0.00529683
2958.27	0.00594807
2967.91	0.00735499
2977.55	0.00640491
2987.2	0.00658443
2996.84	0.00714814
3006.48	0.00771576
3016.12	0.00892849
3025.76	0.00943004
3035.41	0.0102417
3045.05	0.0117455
3054.69	0.0125282
3064.33	0.0133093
3073.98	0.0153006
3083.62	0.0161642
3093.26	0.017053
3102.9	0.0182481
3112.55	0.019497
3122.19	0.0204636
3131.83	0.0210184
3141.47	0.0214679
3151.11	0.0230305
3160.76	0.0233509
3170.4	0.0235379
3180.04	0.0238014
3189.68	0.0244785
3199.33	0.0248016
3208.97	0.0252948
3218.61	0.0247246
3228.25	0.0245631
3237.9	0.0247977
3247.54	0.0252102
3257.18	0.0251033
3266.82	0.0256485
3276.47	0.0263489
3286.11	0.0266531
3295.75	0.0255119
3305.39	0.0272834
3315.03	0.0273584
3324.68	0.0280054
3334.32	0.0287965
3343.96	0.0291264
3353.6	0.0295944
3363.25	0.0295332
3372.89	0.0289049
3382.53	0.0284557
3392.17	0.0280149
3401.82	0.0259939
3411.46	0.0242077
3421.1	0.0227603
3430.74	0.0209181
3440.39	0.0189179
3450.03	0.017789
3459.67	0.0168253
3469.31	0.0155616
3478.95	0.0147896
3488.6	0.0147062
3498.24	0.0144381
3507.88	0.0138784
3517.52	0.0126009
3527.17	0.012129
3536.81	0.0113764
3546.45	0.0116057
3556.09	0.0115996
3565.74	0.0109856
3575.38	0.00518077
3585.02	0.00587908
3594.66	0.00332523
3604.3	0.00139223
3613.95	0.00149876
3623.59	-0.00340186
3633.23	-0.00595224
3642.87	-0.00744858
3652.52	-0.00750324
3662.16	-0.00707498
3671.8	-0.00868387
3681.44	-0.00776609
3691.09	-0.00712752
3700.73	-0.00732767
3710.37	-0.00698255
3720.01	-0.00728235
3729.66	-0.00751283
3739.3	-0.00734557
3748.94	-0.00642142
3758.58	-0.00727048
3768.22	-0.00665487
3777.87	-0.00811569
3787.51	-0.00701467
3797.15	-0.00730137
3806.79	-0.00678677
3816.44	-0.00667853
3826.08	-0.00733492
3835.72	-0.00584837
3845.36	-0.00666453
3855.01	-0.00616333
3864.65	-0.00614925
3874.29	-0.00676942
3883.93	-0.00673226
3893.57	-0.00801824
3903.22	-0.00704572
3912.86	-0.00736284
3922.5	-0.00748223
3932.14	-0.00744813
3941.79	-0.00725473
3951.43	-0.00754092
3961.07	-0.00628418
3970.71	-0.00660217
3980.36	-0.00750824
3990	-0.0065443
3999.64	-0.00679445
