Measurement: Infrared, Infrared Data Processed
Mineral: Phlogopite
Rruff sample: R050485
Ideal chemistry: KMg_3_(Si_3_Al)O_10_(OH)_2_
Locality: Libby, Montana, USA
Source: California Institute of Technology
Description: Green micaceous fragment
Measured chemistry: (K_0.92_Na_0.06_Ca_0.02_)(Mg_0.80_Fe^2+^_0.17_Ti_0.02_Cr_0.01_)_3_(Si_2.83_Al_1.17_)O_10_(OH)_2_
x	intensity
50.1401	-0.00221421
52.0686	-0.00889313
53.9971	-0.00750147
55.9255	-0.00360132
57.854	-0.00260062
59.7825	0.000441142
61.7109	0.00383347
63.6394	0.007717
65.5679	0.00759344
67.4963	0.00456055
69.4248	0.00439526
71.3533	0.00637863
73.2817	0.00764045
75.2102	0.00741924
77.1387	0.00751258
79.0671	0.00885988
80.9956	0.00913242
82.9241	0.00733286
84.8525	0.00551921
86.781	0.00605842
88.7095	0.00639147
90.6379	0.00489035
92.5664	0.00338525
94.4948	0.00303401
96.4233	0.00393692
98.3518	0.00483732
100.28	0.00479014
102.209	0.00463719
104.137	0.00479413
106.066	0.00469435
107.994	0.00537158
109.923	0.00533268
111.851	0.00487017
113.779	0.00467351
115.708	0.00591415
117.636	0.00559863
119.565	0.00554353
121.493	0.00645588
123.422	0.00767388
125.35	0.00726332
127.279	0.00666909
129.207	0.00691118
131.136	0.00766196
133.064	0.00769869
134.993	0.00797592
136.921	0.00870098
138.85	0.00940191
140.778	0.00933838
142.707	0.00965786
144.635	0.0101557
146.563	0.0103844
148.492	0.0100458
150.42	0.00911463
152.349	0.00905233
154.277	0.00862709
156.206	0.00776446
158.134	0.00723237
160.063	0.00704665
161.991	0.00655009
163.92	0.00621496
165.848	0.00619977
167.777	0.00608231
169.705	0.00643327
171.633	0.00675429
173.562	0.00703607
175.49	0.00687753
177.419	0.0065476
179.347	0.00680062
181.276	0.00717721
183.204	0.00693435
185.133	0.0069303
187.061	0.00674491
188.99	0.0067346
190.918	0.00710788
192.847	0.00751644
194.775	0.00748167
196.704	0.00697305
198.632	0.00691595
200.56	0.00705318
202.489	0.00653347
204.417	0.00641003
206.346	0.00576626
208.274	0.00543059
210.203	0.00681683
212.131	0.00762109
214.06	0.00730505
215.988	0.00707241
217.917	0.00704643
219.845	0.00688432
221.774	0.00649369
223.702	0.00616557
225.631	0.00656698
227.559	0.00678199
229.488	0.0068914
231.416	0.00727598
233.344	0.00726154
235.273	0.00810802
237.201	0.00948343
239.13	0.0104135
241.058	0.0109224
242.987	0.01163
244.915	0.0121616
246.844	0.0127269
248.772	0.0136185
250.701	0.0141923
252.629	0.0146186
254.558	0.015162
256.486	0.0154458
258.414	0.0156573
260.343	0.0157038
262.271	0.0161294
264.2	0.0168998
266.128	0.0172407
268.057	0.0172366
269.985	0.0175171
271.914	0.0179099
273.842	0.0180003
275.771	0.0178993
277.699	0.0180955
279.628	0.0186429
281.556	0.0190213
283.485	0.0190119
285.413	0.0191462
287.341	0.0194557
289.27	0.019875
291.198	0.0202541
293.127	0.0206186
295.055	0.0207152
296.984	0.0205273
298.912	0.0209364
300.841	0.0213359
302.769	0.0214394
304.698	0.0214335
306.626	0.0213981
308.555	0.0218022
310.483	0.0218667
312.411	0.022082
314.34	0.0224927
316.269	0.0227713
318.197	0.022985
320.125	0.0235275
322.054	0.0241452
323.982	0.0247059
325.911	0.0250122
327.839	0.0252338
329.768	0.025628
331.696	0.0263021
333.625	0.0267221
335.553	0.0272249
337.482	0.0273316
339.41	0.0271791
341.339	0.027024
343.267	0.0274191
345.195	0.0284118
347.124	0.0289185
349.052	0.0290356
350.981	0.0289858
352.909	0.0290408
354.838	0.0296584
356.766	0.0303578
358.695	0.0308813
360.623	0.0314569
362.552	0.0316224
364.48	0.0315555
366.409	0.0319264
368.337	0.0322358
370.265	0.0325383
372.194	0.0331018
374.122	0.0334496
376.051	0.0336057
377.979	0.0341873
379.908	0.034596
381.836	0.0342979
383.765	0.0346663
385.693	0.0349794
387.622	0.0347193
389.55	0.0348223
391.479	0.0351981
393.407	0.0355355
395.336	0.0360462
397.264	0.0359485
399.192	0.0358479
401.121	0.0361496
403.049	0.0365621
404.978	0.03741
406.906	0.0380208
408.835	0.0382178
410.763	0.0386089
412.692	0.0388869
414.62	0.039165
416.549	0.0396265
418.477	0.0400315
420.406	0.0402757
422.334	0.0406113
424.262	0.0414026
426.191	0.04203
428.12	0.042735
430.048	0.043643
431.976	0.0443608
433.905	0.0446949
435.833	0.0451828
437.762	0.0460324
439.69	0.0463044
441.619	0.04656
443.547	0.0466545
445.476	0.0469144
447.404	0.0473307
449.333	0.0475868
451.261	0.0476967
453.19	0.0477655
455.118	0.0479494
457.046	0.047751
458.975	0.0470476
460.903	0.0463544
462.832	0.0459453
464.76	0.0454104
466.689	0.0448161
468.617	0.0439443
470.546	0.0426264
472.474	0.0413173
474.403	0.0402457
476.331	0.0390701
478.26	0.0380378
480.188	0.0372848
482.116	0.0370565
484.045	0.0365522
485.974	0.0363489
487.902	0.0364494
489.83	0.036091
491.759	0.0356424
493.687	0.0355874
495.616	0.0351715
497.544	0.0342004
499.473	0.0335381
501.401	0.0333133
503.33	0.0332568
505.258	0.0330435
507.187	0.0327108
509.115	0.0324739
511.043	0.032067
512.972	0.0313918
514.9	0.0308837
516.829	0.0310006
518.757	0.030735
520.686	0.0305337
522.614	0.0307605
524.543	0.0306435
526.471	0.0302453
528.4	0.0296386
530.328	0.0287877
532.257	0.0283996
534.185	0.0284852
536.114	0.0282827
538.042	0.0278544
539.971	0.0280937
541.899	0.0280774
543.827	0.0282853
545.756	0.0283834
547.684	0.0280405
549.613	0.0282094
551.541	0.0280025
553.47	0.0283684
555.398	0.0292637
557.327	0.0292389
559.255	0.0288929
561.184	0.0291777
563.112	0.0295314
565.041	0.0299025
566.969	0.0303302
568.898	0.030028
570.826	0.0303036
572.755	0.031023
574.683	0.0318845
576.611	0.0323585
578.54	0.0325731
580.468	0.0335387
582.397	0.0344082
584.325	0.0347039
586.254	0.0348369
588.182	0.0344161
590.111	0.0345085
592.039	0.0355182
593.968	0.03612
595.896	0.0363434
597.824	0.0369281
599.753	0.0369253
601.682	0.0370881
603.61	0.0380259
605.538	0.0379437
607.467	0.0379036
609.395	0.0381629
611.324	0.0379212
613.252	0.0382211
615.181	0.0386993
617.109	0.0386166
619.038	0.0390351
620.966	0.0392447
622.894	0.038822
624.823	0.0391246
626.751	0.0396772
628.68	0.0405083
630.608	0.0418538
632.537	0.0425206
634.465	0.0426958
636.394	0.0431866
638.322	0.0442644
640.251	0.0451297
642.179	0.045575
644.108	0.0456253
646.036	0.0461922
647.965	0.0468597
649.893	0.04675
651.822	0.0469482
653.75	0.0474563
655.678	0.0476879
657.607	0.0476938
659.535	0.0474977
661.464	0.0475338
663.392	0.0480677
665.321	0.048041
667.249	0.0488997
669.178	0.0495477
671.106	0.0491421
673.035	0.0491858
674.963	0.0491571
676.892	0.048751
678.82	0.0485404
680.749	0.0491518
682.677	0.0494209
684.606	0.0493416
686.534	0.0497742
688.462	0.0493949
690.391	0.0491548
692.319	0.0497277
694.248	0.0500382
696.176	0.0516404
698.105	0.0506579
700.033	0.046313
