Measurement: Infrared, Infrared Data Processed
Mineral: Probertite
Rruff sample: R050284
Ideal chemistry: NaCaB_5_O_7_(OH)_4_3H_2_O
Locality: Borax Open Pit, Boron, Kern County, California, USA
Source: Marcus Origlieri
Description: Spray of colorless acicular single crystals
Measured chemistry: Na_1.00_Ca_1.00_B_5.00_O_7_(OH)_4_Â·3H_2_O
x	intensity
399.193	0.111162
408.835	0.118449
418.477	0.119623
428.12	0.13605
437.762	0.160544
447.404	0.156795
457.047	0.150381
466.689	0.150997
476.331	0.156361
485.974	0.148079
495.616	0.121444
505.258	0.116313
514.901	0.152448
524.543	0.121302
534.185	0.109653
543.828	0.118943
553.47	0.136877
563.112	0.120685
572.755	0.129185
582.397	0.141397
592.039	0.144832
601.682	0.146297
611.324	0.151272
620.966	0.121915
630.609	0.0967141
640.251	0.111287
649.893	0.112644
659.536	0.112098
669.178	0.126579
678.82	0.166986
688.463	0.169128
698.105	0.132879
707.747	0.113334
717.39	0.117521
727.032	0.127991
736.674	0.141963
746.317	0.166362
755.959	0.183103
765.601	0.123701
775.244	0.123373
784.886	0.136273
794.528	0.148477
804.171	0.160073
813.813	0.18022
823.455	0.226755
833.098	0.267787
842.74	0.194417
852.382	0.185963
862.025	0.144375
871.667	0.174557
881.309	0.243237
890.952	0.329992
900.594	0.379858
910.236	0.350507
919.879	0.333796
929.521	0.351104
939.163	0.357065
948.806	0.40841
958.448	0.402498
968.09	0.359456
977.733	0.346633
987.375	0.323228
997.017	0.27116
1006.66	0.207151
1016.3	0.172298
1025.94	0.195002
1035.59	0.246559
1045.23	0.210794
1054.87	0.171026
1064.51	0.17033
1074.16	0.202072
1083.8	0.20793
1093.44	0.181057
1103.08	0.143391
1112.72	0.120287
1122.37	0.115524
1132.01	0.124655
1141.65	0.115469
1151.3	0.105588
1160.94	0.0848463
1170.58	0.0654925
1180.22	0.0686455
1189.86	0.0699562
1199.51	0.065307
1209.15	0.0677797
1218.79	0.0665887
1228.43	0.0494755
1238.08	0.0391475
1247.72	0.0342689
1257.36	0.0333977
1267	0.0374857
1276.64	0.0451774
1286.29	0.0610027
1295.93	0.0956293
1305.57	0.165872
1315.21	0.236517
1324.86	0.224004
1334.5	0.198204
1344.14	0.205478
1353.78	0.201177
1363.43	0.187239
1373.07	0.250205
1382.71	0.228081
1392.35	0.182413
1401.99	0.130037
1411.64	0.0965524
1421.28	0.0845065
1430.92	0.0857002
1440.57	0.0620014
1450.21	0.0464644
1459.85	0.0415349
1469.49	0.0451567
1479.13	0.0383853
1488.78	0.0249403
1498.42	0.0203502
1508.06	0.0181874
1517.7	0.0169928
1527.35	0.0168826
1536.99	0.016603
1546.63	0.0178357
1556.27	0.0177401
1565.91	0.0187886
1575.56	0.019177
1585.2	0.020495
1594.84	0.0213077
1604.48	0.0230872
1614.13	0.0248433
1623.77	0.0268377
1633.41	0.0288579
1643.05	0.0309867
1652.7	0.0330602
1662.34	0.0346535
1671.98	0.0350814
1681.62	0.0321796
1691.27	0.027641
1700.91	0.0234358
1710.55	0.0189948
1720.19	0.0158389
1729.84	0.012987
1739.48	0.00814453
1749.12	0.00770236
1758.76	0.00870092
1768.4	0.00910109
1778.05	0.00780998
1787.69	0.00771826
1797.33	0.00740756
1806.97	0.00705965
1816.62	0.00614902
1826.26	0.00581839
1835.9	0.00658547
1845.54	0.0057187
1855.18	0.00610006
1864.83	0.00549386
1874.47	0.00538634
1884.11	0.00407157
1893.75	0.00539318
1903.4	0.00353426
1913.04	0.00461148
1922.68	0.00468341
1932.32	0.00270701
1941.97	0.00364246
1951.61	0.00343918
1961.25	0.00187679
1970.89	-0.000506737
1980.54	0.00176925
1990.18	0.00444805
1999.82	0.00117921
2009.46	0.00286304
2019.11	0.00496673
2028.75	0.00350694
2038.39	0.00395234
2048.03	0.00629414
2057.67	0.00627447
2067.32	0.00712485
2076.96	0.00814501
2086.6	0.00526557
2096.24	0.00704849
2105.89	0.00812039
2115.53	0.00918374
2125.17	0.00636265
2134.81	0.0069255
2144.45	0.00503129
2154.1	0.00199267
2163.74	0.00551648
2173.38	0.00283942
2183.02	0.00671462
2192.67	0.00696614
2202.31	0.0106439
2211.95	0.00665089
2221.59	0.00931963
2231.24	0.00953843
2240.88	0.009712
2250.52	0.0107787
2260.16	0.00828736
2269.8	0.0103163
2279.45	0.0109221
2289.09	0.0122483
2298.73	0.0128984
2308.38	0.0119236
2318.02	0.0125719
2327.66	0.0127298
2337.3	0.01292
2346.94	0.0106896
2356.59	0.0122359
2366.23	0.0120205
2375.87	0.00949009
2385.51	0.010506
2395.16	0.0105494
2404.8	0.0121905
2414.44	0.0120211
2424.08	0.0115557
2433.72	0.011025
2443.37	0.012503
2453.01	0.0116949
2462.65	0.0116667
2472.29	0.0118627
2481.94	0.0110311
2491.58	0.0110148
2501.22	0.00994629
2510.86	0.0103461
2520.51	0.0104657
2530.15	0.010148
2539.79	0.0103182
2549.43	0.0122097
2559.07	0.011544
2568.72	0.0110986
2578.36	0.0109121
2588	0.0104496
2597.64	0.00934635
2607.29	0.00997947
2616.93	0.0104025
2626.57	0.0089707
2636.21	0.0100615
2645.86	0.00975542
2655.5	0.0106328
2665.14	0.0109745
2674.78	0.0110329
2684.43	0.0106943
2694.07	0.0103432
2703.71	0.0127267
2713.35	0.013259
2722.99	0.0133142
2732.64	0.0138156
2742.28	0.012686
2751.92	0.0153042
2761.56	0.0135107
2771.21	0.0150421
2780.85	0.0172855
2790.49	0.0169831
2800.13	0.018336
2809.78	0.0198189
2819.42	0.0197247
2829.06	0.02046
2838.7	0.0237236
2848.34	0.02363
2857.99	0.0240521
2867.63	0.0243742
2877.27	0.0271354
2886.91	0.028677
2896.56	0.0282085
2906.2	0.0297055
2915.84	0.0323757
2925.48	0.0326167
2935.13	0.0331362
2944.77	0.0377347
2954.41	0.037436
2964.05	0.0419582
2973.7	0.0419247
2983.34	0.0459342
2992.98	0.0499121
3002.62	0.0531769
3012.26	0.0558462
3021.91	0.0604762
3031.55	0.0633359
3041.19	0.0689965
3050.83	0.0725906
3060.48	0.0801878
3070.12	0.0827609
3079.76	0.0834344
3089.4	0.0860797
3099.05	0.0847958
3108.69	0.085396
3118.33	0.0864881
3127.97	0.0885496
3137.61	0.0897094
3147.26	0.0921786
3156.9	0.0959553
3166.54	0.101181
3176.18	0.105548
3185.83	0.106742
3195.47	0.116145
3205.11	0.119915
3214.75	0.128243
3224.4	0.135217
3234.04	0.144971
3243.68	0.149201
3253.32	0.152389
3262.97	0.148621
3272.61	0.15391
3282.25	0.153353
3291.89	0.149417
3301.53	0.146506
3311.18	0.144152
3320.82	0.141166
3330.46	0.142641
3340.1	0.146148
3349.75	0.159666
3359.39	0.187951
3369.03	0.21169
3378.67	0.183045
3388.32	0.148476
3397.96	0.135025
3407.6	0.117706
3417.24	0.107966
3426.89	0.100195
3436.53	0.0913834
3446.17	0.0886095
3455.81	0.0810693
3465.45	0.0796975
3475.1	0.0811445
3484.74	0.0806929
3494.38	0.0857507
3504.02	0.0919658
3513.67	0.0836621
3523.31	0.0774773
3532.95	0.068485
3542.59	0.0739139
3552.24	0.0875232
3561.88	0.109439
3571.52	0.0690176
3581.16	0.0459196
3590.8	0.0367676
3600.45	0.0332189
3610.09	0.0312164
3619.73	0.0359754
3629.37	0.0633598
3639.02	0.0438429
3648.66	0.0189779
3658.3	0.0172913
3667.94	0.0145286
3677.59	0.00993335
3687.23	0.00737457
3696.87	0.0124764
3706.51	0.0111071
3716.16	0.00829372
3725.8	0.0108774
3735.44	0.013873
3745.08	0.01077
3754.72	0.012693
3764.37	0.0126224
3774.01	0.0106331
3783.65	0.0129696
3793.29	0.0121708
3802.94	0.0085995
3812.58	0.0115465
3822.22	0.00734266
3831.86	0.0113857
3841.51	0.0107988
3851.15	0.0128185
3860.79	0.0126911
3870.43	0.0144803
3880.07	0.0111144
3889.72	0.0125244
3899.36	0.0133763
3909	0.0127347
3918.64	0.00894389
3928.29	0.00808567
3937.93	0.0105255
3947.57	0.00971471
3957.21	0.0134243
3966.86	0.0129436
3976.5	0.017593
3986.14	0.017895
3995.78	0.0163526
