Measurement: Infrared, Infrared Data Processed
Mineral: Pumpellyite-(Mg)
Rruff sample: R070130
Ideal chemistry: Ca_2_MgAl_2_(SiO_4_)(Si_2_O_7_)(OH)_2_H_2_O
Locality: Isle Royale National Park, Lake Superior,  Keweenaw County, Michigan, USA
Source: Michael Scott
Description: Green waterworn massive pebble
x	intensity
399.193	0.277492
408.835	0.272385
418.477	0.286527
428.12	0.304957
437.762	0.324904
447.404	0.294135
457.047	0.273529
466.689	0.250164
476.331	0.220541
485.974	0.201588
495.616	0.184352
505.258	0.167451
514.901	0.165565
524.543	0.160532
534.185	0.162436
543.828	0.161129
553.47	0.142752
563.112	0.127395
572.755	0.132329
582.397	0.144955
592.039	0.162206
601.682	0.176003
611.324	0.172115
620.966	0.155771
630.609	0.154446
640.251	0.162612
649.893	0.161675
659.536	0.145394
669.178	0.122478
678.82	0.111131
688.463	0.0980234
698.105	0.0864917
707.747	0.0804126
717.39	0.0791495
727.032	0.0826847
736.674	0.0860891
746.317	0.0892365
755.959	0.0959736
765.601	0.103062
775.244	0.10994
784.886	0.119463
794.528	0.13444
804.171	0.158626
813.813	0.184963
823.455	0.206591
833.098	0.22763
842.74	0.245303
852.382	0.259964
862.025	0.258608
871.667	0.247121
881.309	0.244631
890.952	0.267384
900.594	0.314689
910.236	0.348602
919.879	0.34781
929.521	0.343902
939.163	0.350915
948.806	0.356971
958.448	0.339172
968.09	0.301397
977.733	0.26618
987.375	0.243628
997.017	0.229287
1006.66	0.218007
1016.3	0.200697
1025.94	0.177327
1035.59	0.158419
1045.23	0.132161
1054.87	0.107272
1064.51	0.0908478
1074.16	0.0711978
1083.8	0.057512
1093.44	0.0481334
1103.08	0.0392224
1112.72	0.0334367
1122.37	0.0327687
1132.01	0.0318378
1141.65	0.0227571
1151.3	0.0156492
1160.94	0.0122446
1170.58	0.0105886
1180.22	0.0091897
1189.86	0.00839858
1199.51	0.0078817
1209.15	0.00664533
1218.79	0.00618261
1228.43	0.00575442
1238.08	0.00525919
1247.72	0.00512217
1257.36	0.00517387
1267	0.00519234
1276.64	0.00690262
1286.29	0.00885622
1295.93	0.00872658
1305.57	0.00689688
1315.21	0.00644023
1324.86	0.00561165
1334.5	0.00507998
1344.14	0.00487552
1353.78	0.00498646
1363.43	0.00533366
1373.07	0.00596106
1382.71	0.00605952
1392.35	0.00650338
1401.99	0.00689121
1411.64	0.00775597
1421.28	0.00745349
1430.92	0.00772666
1440.57	0.00924103
1450.21	0.00813184
1459.85	0.00817465
1469.49	0.00755334
1479.13	0.00665644
1488.78	0.00678391
1498.42	0.00693817
1508.06	0.00746206
1517.7	0.00677216
1527.35	0.00706859
1536.99	0.00739645
1546.63	0.00785972
1556.27	0.00842202
1565.91	0.00842131
1575.56	0.00894613
1585.2	0.00862454
1594.84	0.00893923
1604.48	0.00937293
1614.13	0.0101152
1623.77	0.0110417
1633.41	0.0121086
1643.05	0.0123277
1652.7	0.0128736
1662.34	0.0114865
1671.98	0.0104183
1681.62	0.0100927
1691.27	0.010467
1700.91	0.0114289
1710.55	0.0101701
1720.19	0.00785979
1729.84	0.00647443
1739.48	0.00533648
1749.12	0.00456648
1758.76	0.00438289
1768.4	0.00422887
1778.05	0.00440997
1787.69	0.00421437
1797.33	0.00393107
1806.97	0.00382057
1816.62	0.00354923
1826.26	0.00390058
1835.9	0.00364772
1845.54	0.00337209
1855.18	0.00349221
1864.83	0.00335503
1874.47	0.00298479
1884.11	0.00281219
1893.75	0.00303061
1903.4	0.00296756
1913.04	0.0026687
1922.68	0.00254923
1932.32	0.00211957
1941.97	0.00189442
1951.61	0.00237931
1961.25	0.00273226
1970.89	0.00235347
1980.54	0.00398218
1990.18	0.00218773
1999.82	0.00320135
2009.46	0.00397011
2019.11	0.00422104
2028.75	0.00417193
2038.39	0.00453331
2048.03	0.00461905
2057.67	0.00442336
2067.32	0.00445591
2076.96	0.00480944
2086.6	0.00441309
2096.24	0.00466798
2105.89	0.00558409
2115.53	0.00527076
2125.17	0.00585973
2134.81	0.00460103
2144.45	0.00517969
2154.1	0.00780114
2163.74	0.00984209
2173.38	0.00841311
2183.02	0.00863261
2192.67	0.00881865
2202.31	0.00934765
2211.95	0.00922415
2221.59	0.0105604
2231.24	0.00984901
2240.88	0.0102197
2250.52	0.00950806
2260.16	0.0083512
2269.8	0.00836652
2279.45	0.00855371
2289.09	0.00768619
2298.73	0.00697486
2308.38	0.00685637
2318.02	0.00700904
2327.66	0.00596862
2337.3	0.00611432
2346.94	0.00618979
2356.59	0.00562019
2366.23	0.00579152
2375.87	0.00621909
2385.51	0.00644992
2395.16	0.00598108
2404.8	0.00617839
2414.44	0.00688187
2424.08	0.00656251
2433.72	0.00683672
2443.37	0.00686447
2453.01	0.00723535
2462.65	0.00719299
2472.29	0.00740234
2481.94	0.00741864
2491.58	0.00745497
2501.22	0.00759357
2510.86	0.00752057
2520.51	0.00823519
2530.15	0.00796877
2539.79	0.00831665
2549.43	0.00813219
2559.07	0.00818775
2568.72	0.00837685
2578.36	0.00845783
2588	0.00947503
2597.64	0.00894436
2607.29	0.0094169
2616.93	0.00949481
2626.57	0.0100115
2636.21	0.00993549
2645.86	0.010438
2655.5	0.0105942
2665.14	0.0104265
2674.78	0.010758
2684.43	0.0106262
2694.07	0.0108557
2703.71	0.0114927
2713.35	0.0114849
2722.99	0.0118802
2732.64	0.0120655
2742.28	0.0124771
2751.92	0.0127984
2761.56	0.0132494
2771.21	0.0135721
2780.85	0.0140503
2790.49	0.0145507
2800.13	0.014792
2809.78	0.0153257
2819.42	0.0162702
2829.06	0.0171675
2838.7	0.0185163
2848.34	0.021722
2857.99	0.0232846
2867.63	0.0221165
2877.27	0.0220642
2886.91	0.0225187
2896.56	0.0253732
2906.2	0.0272053
2915.84	0.0303689
2925.48	0.034615
2935.13	0.0315394
2944.77	0.0300386
2954.41	0.0325367
2964.05	0.031609
2973.7	0.0298713
2983.34	0.0301779
2992.98	0.0306922
3002.62	0.0319698
3012.26	0.031793
3021.91	0.0329586
3031.55	0.0346362
3041.19	0.0356349
3050.83	0.0361612
3060.48	0.0375892
3070.12	0.038007
3079.76	0.0391252
3089.4	0.0412059
3099.05	0.042865
3108.69	0.0450101
3118.33	0.0463041
3127.97	0.0468473
3137.61	0.0473882
3147.26	0.0466654
3156.9	0.0453359
3166.54	0.0434106
3176.18	0.0429182
3185.83	0.0418522
3195.47	0.0421711
3205.11	0.0420186
3214.75	0.0414638
3224.4	0.0417824
3234.04	0.042397
3243.68	0.0416048
3253.32	0.042356
3262.97	0.0434235
3272.61	0.0444926
3282.25	0.0458998
3291.89	0.0472075
3301.53	0.0488368
3311.18	0.050878
3320.82	0.0532557
3330.46	0.0559889
3340.1	0.0595776
3349.75	0.063198
3359.39	0.0677742
3369.03	0.0730113
3378.67	0.0784364
3388.32	0.0833756
3397.96	0.0890706
3407.6	0.093587
3417.24	0.0926281
3426.89	0.0860074
3436.53	0.0806675
3446.17	0.0762822
3455.81	0.0737764
3465.45	0.0738015
3475.1	0.0742827
3484.74	0.075032
3494.38	0.0785501
3504.02	0.081446
3513.67	0.0861472
3523.31	0.0911382
3532.95	0.0968852
3542.59	0.101209
3552.24	0.10278
3561.88	0.0992779
3571.52	0.090081
3581.16	0.0825446
3590.8	0.0736438
3600.45	0.0654389
3610.09	0.0578448
3619.73	0.0530511
3629.37	0.0472844
3639.02	0.0418584
3648.66	0.0380631
3658.3	0.0343462
3667.94	0.0306524
3677.59	0.0267177
3687.23	0.0201998
3696.87	0.00980825
3706.51	0.00683159
3716.16	0.00540758
3725.8	0.00434634
3735.44	0.0053919
3745.08	0.00526452
3754.72	0.00354403
3764.37	0.00453056
3774.01	0.00410751
3783.65	0.00446761
3793.29	0.00499624
3802.94	0.00451669
3812.58	0.00499216
3822.22	0.00475278
3831.86	0.00448161
3841.51	0.00540732
3851.15	0.00531774
3860.79	0.00510703
3870.43	0.00590533
3880.07	0.00578515
3889.72	0.005165
3899.36	0.00549373
3909	0.00553599
3918.64	0.00589761
3928.29	0.00598304
3937.93	0.00509173
3947.57	0.00506381
3957.21	0.00454749
3966.86	0.00482259
3976.5	0.00497786
3986.14	0.00640009
3995.78	0.00608452
