Measurement: Infrared, Infrared Data Processed
Mineral: Pyrargyrite
Rruff sample: R050318
Ideal chemistry: Ag^1+^_3_Sb^3+^S^2-^_3_
Locality: unknown
Source: Eugene Schlepp
Description: Black prismatic crystal
Measured chemistry: Ag_3.00_Sb_1.00_S_3.00_
x	intensity
399.193	0.145447
408.835	0.157223
418.477	0.174274
428.12	0.179126
437.762	0.199308
447.404	0.204978
457.047	0.217327
466.689	0.226021
476.331	0.22426
485.974	0.226023
495.616	0.232196
505.258	0.241216
514.901	0.241626
524.543	0.244682
534.185	0.247853
543.828	0.252252
553.47	0.256358
563.112	0.257192
572.755	0.260572
582.397	0.266516
592.039	0.270351
601.682	0.275714
611.324	0.281556
620.966	0.284337
630.609	0.288532
640.251	0.292842
649.893	0.295786
659.536	0.297566
669.178	0.300178
678.82	0.302647
688.463	0.306284
698.105	0.308489
707.747	0.311377
717.39	0.314501
727.032	0.317583
736.674	0.320931
746.317	0.324045
755.959	0.328286
765.601	0.32995
775.244	0.332231
784.886	0.335501
794.528	0.339199
804.171	0.341393
813.813	0.345983
823.455	0.349717
833.098	0.354271
842.74	0.357131
852.382	0.359937
862.025	0.363876
871.667	0.368762
881.309	0.373308
890.952	0.377422
900.594	0.381487
910.236	0.385996
919.879	0.39017
929.521	0.391647
939.163	0.394894
948.806	0.398825
958.448	0.399128
968.09	0.400208
977.733	0.403214
987.375	0.405676
997.017	0.405857
1006.66	0.4049
1016.3	0.404342
1025.94	0.405243
1035.59	0.410098
1045.23	0.411321
1054.87	0.411869
1064.51	0.411813
1074.16	0.411444
1083.8	0.412562
1093.44	0.415405
1103.08	0.417364
1112.72	0.416631
1122.37	0.41791
1132.01	0.419778
1141.65	0.422891
1151.3	0.425856
1160.94	0.426726
1170.58	0.42691
1180.22	0.429042
1189.86	0.431822
1199.51	0.433804
1209.15	0.4363
1218.79	0.438492
1228.43	0.440456
1238.08	0.441914
1247.72	0.443365
1257.36	0.444355
1267	0.444986
1276.64	0.447417
1286.29	0.450517
1295.93	0.452726
1305.57	0.454468
1315.21	0.456892
1324.86	0.458997
1334.5	0.461901
1344.14	0.463562
1353.78	0.465469
1363.43	0.468543
1373.07	0.470707
1382.71	0.473561
1392.35	0.476087
1401.99	0.477197
1411.64	0.479083
1421.28	0.479679
1430.92	0.482174
1440.57	0.483973
1450.21	0.485475
1459.85	0.48669
1469.49	0.487342
1479.13	0.490127
1488.78	0.49258
1498.42	0.494706
1508.06	0.49715
1517.7	0.497325
1527.35	0.499297
1536.99	0.501367
1546.63	0.50251
1556.27	0.505533
1565.91	0.507619
1575.56	0.510351
1585.2	0.51221
1594.84	0.513477
1604.48	0.515259
1614.13	0.517081
1623.77	0.518257
1633.41	0.519039
1643.05	0.521515
1652.7	0.523487
1662.34	0.523798
1671.98	0.525014
1681.62	0.525636
1691.27	0.527536
1700.91	0.529414
1710.55	0.529956
1720.19	0.532724
1729.84	0.534109
1739.48	0.533407
1749.12	0.533985
1758.76	0.537273
1768.4	0.540459
1778.05	0.542322
1787.69	0.541725
1797.33	0.542305
1806.97	0.542346
1816.62	0.543816
1826.26	0.545999
1835.9	0.547048
1845.54	0.546914
1855.18	0.548683
1864.83	0.54976
1874.47	0.549606
1884.11	0.551176
1893.75	0.5535
1903.4	0.553499
1913.04	0.554058
1922.68	0.55376
1932.32	0.551628
1941.97	0.552148
1951.61	0.549838
1961.25	0.546693
1970.89	0.54192
1980.54	0.546565
1990.18	0.546238
1999.82	0.548846
2009.46	0.546221
2019.11	0.545638
2028.75	0.553619
2038.39	0.552446
2048.03	0.559295
2057.67	0.567247
2067.32	0.573274
2076.96	0.573281
2086.6	0.579164
2096.24	0.577699
2105.89	0.58066
2115.53	0.585374
2125.17	0.582262
2134.81	0.576023
2144.45	0.57231
2154.1	0.566728
2163.74	0.569755
2173.38	0.573916
2183.02	0.577615
2192.67	0.581559
2202.31	0.586183
2211.95	0.591389
2221.59	0.591194
2231.24	0.597378
2240.88	0.598879
2250.52	0.602483
2260.16	0.603806
2269.8	0.608032
2279.45	0.613924
2289.09	0.616816
2298.73	0.619485
2308.38	0.622962
2318.02	0.625411
2327.66	0.628785
2337.3	0.631407
2346.94	0.631343
2356.59	0.631754
2366.23	0.633296
2375.87	0.631477
2385.51	0.632122
2395.16	0.633372
2404.8	0.633701
2414.44	0.633289
2424.08	0.635697
2433.72	0.637952
2443.37	0.640002
2453.01	0.639387
2462.65	0.642271
2472.29	0.64162
2481.94	0.644768
2491.58	0.647369
2501.22	0.647419
2510.86	0.650114
2520.51	0.646798
2530.15	0.65241
2539.79	0.652826
2549.43	0.653747
2559.07	0.654804
2568.72	0.655832
2578.36	0.657358
2588	0.660273
2597.64	0.66373
2607.29	0.663843
2616.93	0.665321
2626.57	0.668476
2636.21	0.669644
2645.86	0.673967
2655.5	0.675963
2665.14	0.675369
2674.78	0.67783
2684.43	0.679215
2694.07	0.679502
2703.71	0.680495
2713.35	0.683764
2722.99	0.685377
2732.64	0.686231
2742.28	0.688517
2751.92	0.688024
2761.56	0.690713
2771.21	0.691968
2780.85	0.693392
2790.49	0.693503
2800.13	0.695729
2809.78	0.696644
2819.42	0.699201
2829.06	0.70054
2838.7	0.700523
2848.34	0.704837
2857.99	0.702762
2867.63	0.705836
2877.27	0.706572
2886.91	0.707744
2896.56	0.709677
2906.2	0.710142
2915.84	0.712009
2925.48	0.711189
2935.13	0.712903
2944.77	0.716511
2954.41	0.714057
2964.05	0.715546
2973.7	0.714923
2983.34	0.717126
2992.98	0.720436
3002.62	0.722067
3012.26	0.719769
3021.91	0.719637
3031.55	0.72292
3041.19	0.725968
3050.83	0.725362
3060.48	0.72772
3070.12	0.727636
3079.76	0.73039
3089.4	0.729641
3099.05	0.731974
3108.69	0.731868
3118.33	0.7349
3127.97	0.735121
3137.61	0.737303
3147.26	0.738359
3156.9	0.738276
3166.54	0.742974
3176.18	0.739081
3185.83	0.743836
3195.47	0.744078
3205.11	0.749262
3214.75	0.752961
3224.4	0.752886
3234.04	0.75203
3243.68	0.751493
3253.32	0.750991
3262.97	0.757311
3272.61	0.758156
3282.25	0.75994
3291.89	0.763158
3301.53	0.758582
3311.18	0.764512
3320.82	0.76578
3330.46	0.768205
3340.1	0.770963
3349.75	0.769705
3359.39	0.76889
3369.03	0.774903
3378.67	0.772891
3388.32	0.773301
3397.96	0.776652
3407.6	0.773199
3417.24	0.77796
3426.89	0.779045
3436.53	0.778634
3446.17	0.78011
3455.81	0.78088
3465.45	0.781307
3475.1	0.785622
3484.74	0.780472
3494.38	0.787295
3504.02	0.786004
3513.67	0.784636
3523.31	0.791895
3532.95	0.791285
3542.59	0.790545
3552.24	0.79309
3561.88	0.794328
3571.52	0.796455
3581.16	0.792469
3590.8	0.796303
3600.45	0.799011
3610.09	0.801245
3619.73	0.791889
3629.37	0.802642
3639.02	0.801081
3648.66	0.802654
3658.3	0.80691
3667.94	0.81109
3677.59	0.8085
3687.23	0.815416
3696.87	0.810646
3706.51	0.80691
3716.16	0.810375
3725.8	0.808734
3735.44	0.819257
3745.08	0.81586
3754.72	0.817718
3764.37	0.821956
3774.01	0.82381
3783.65	0.825262
3793.29	0.825126
3802.94	0.821834
3812.58	0.825588
3822.22	0.830147
3831.86	0.834523
3841.51	0.832573
3851.15	0.832673
3860.79	0.833003
3870.43	0.829203
3880.07	0.837884
3889.72	0.844326
3899.36	0.83784
3909	0.843386
3918.64	0.842219
3928.29	0.836205
3937.93	0.842605
3947.57	0.84638
3957.21	0.839441
3966.86	0.842484
3976.5	0.84211
3986.14	0.855098
3995.78	0.852975
