Measurement: Infrared, Infrared Data Processed
Mineral: Pyrite
Rruff sample: R050190
Ideal chemistry: Fe^2+^(S_2_)^2-^
Locality: Huanzala mine, Huallanca District, Dos de Mayo Province, Huanuco Department, Peru
Source: Dave Bunk Minerals
Description: Brass yellow modified cubes with typical pyrite striations
Measured chemistry: Fe_1.00_S_2.00_
x	intensity
50.1401	0.0214205
52.0686	0.00901818
53.9971	0.0114091
55.9255	0.0237907
57.854	0.0215222
59.7825	0.0250009
61.7109	0.023677
63.6394	0.0328559
65.5679	0.0287985
67.4963	0.0264431
69.4248	0.0297974
71.3533	0.030154
73.2817	0.0300111
75.2102	0.0317894
77.1387	0.0326886
79.0671	0.0329073
80.9956	0.0315844
82.9241	0.0347398
84.8525	0.0377244
86.781	0.0363276
88.7095	0.0347302
90.6379	0.036331
92.5664	0.0362935
94.4948	0.0356111
96.4233	0.0353433
98.3518	0.0361827
100.28	0.0358267
102.209	0.0359144
104.137	0.036144
106.066	0.0366312
107.994	0.0370183
109.923	0.0375569
111.851	0.0377058
113.779	0.0377265
115.708	0.0379479
117.636	0.0383281
119.565	0.0395838
121.493	0.0402133
123.422	0.039889
125.35	0.0403132
127.279	0.041722
129.207	0.043017
131.136	0.0442677
133.064	0.0452241
134.993	0.0456391
136.921	0.0455092
138.85	0.0461038
140.778	0.0475732
142.707	0.048378
144.635	0.0488866
146.563	0.0491224
148.492	0.0489462
150.42	0.0483121
152.349	0.048184
154.277	0.0484468
156.206	0.0488551
158.134	0.0494639
160.063	0.0499501
161.991	0.0510601
163.92	0.0516971
165.848	0.0517227
167.777	0.0516369
169.705	0.0514361
171.633	0.0510951
173.562	0.0512944
175.49	0.051138
177.419	0.0513068
179.347	0.0514162
181.276	0.0514876
183.204	0.0520948
185.133	0.0534938
187.061	0.0540957
188.99	0.0550119
190.918	0.0555541
192.847	0.0560141
194.775	0.0561205
196.704	0.0565205
198.632	0.0569805
200.56	0.0571677
202.489	0.056952
204.417	0.0572924
206.346	0.0573531
208.274	0.057335
210.203	0.0581041
212.131	0.0585796
214.06	0.0580126
215.988	0.0579764
217.917	0.0578397
219.845	0.0579603
221.774	0.0579052
223.702	0.0579091
225.631	0.0577191
227.559	0.0580115
229.488	0.0580234
231.416	0.058076
233.344	0.057959
235.273	0.0585333
237.201	0.0587828
239.13	0.0592577
241.058	0.0597899
242.987	0.0607534
244.915	0.0613227
246.844	0.0622296
248.772	0.0629644
250.701	0.0637849
252.629	0.0641945
254.558	0.065309
256.486	0.0660091
258.414	0.066685
260.343	0.0674086
262.271	0.0682508
264.2	0.0686448
266.128	0.0692757
268.057	0.0696069
269.985	0.0703113
271.914	0.0708031
273.842	0.0712355
275.771	0.0712469
277.699	0.072088
279.628	0.0727219
281.556	0.0729168
283.485	0.0730841
285.413	0.0738132
287.341	0.0740257
289.27	0.0747927
291.198	0.0749376
293.127	0.0724698
295.055	0.0704015
296.984	0.072625
298.912	0.0740544
300.841	0.0746126
302.769	0.0743012
304.698	0.0739663
306.626	0.0734345
308.555	0.0729986
310.483	0.0724046
312.411	0.072282
314.34	0.0720275
316.269	0.0719125
318.197	0.0711729
320.125	0.0706226
322.054	0.0701132
323.982	0.0703764
325.911	0.0704312
327.839	0.0706945
329.768	0.0710391
331.696	0.0717926
333.625	0.0722245
335.553	0.0726755
337.482	0.0730079
339.41	0.0735143
341.339	0.0737398
343.267	0.0741193
345.195	0.073932
347.124	0.0731948
349.052	0.0692635
350.981	0.0629467
352.909	0.0651796
354.838	0.0704535
356.766	0.0723257
358.695	0.0737439
360.623	0.0744854
362.552	0.0754059
364.48	0.076099
366.409	0.0769408
368.337	0.0774108
370.265	0.078131
372.194	0.0786962
374.122	0.0795497
376.051	0.0800615
377.979	0.0805842
379.908	0.0807735
381.836	0.0815375
383.765	0.0824128
385.693	0.0830994
387.622	0.0834193
389.55	0.083962
391.479	0.0842805
393.407	0.0848725
395.336	0.0846228
397.264	0.0843409
399.192	0.0831785
401.121	0.0817574
403.049	0.082525
404.978	0.0854106
406.906	0.0878865
408.835	0.0900841
410.763	0.0917036
412.692	0.0932453
414.62	0.0941562
416.549	0.094344
418.477	0.0935548
420.406	0.0924042
422.334	0.0906176
424.262	0.0884691
426.191	0.0855376
428.12	0.0820784
430.048	0.0775491
431.976	0.0724834
433.905	0.0666821
435.833	0.0593665
437.762	0.0530891
439.69	0.0515375
441.619	0.0530397
443.547	0.0569408
445.476	0.062114
447.404	0.0673419
449.333	0.071583
451.261	0.0754556
453.19	0.0786497
455.118	0.081111
457.046	0.0830758
458.975	0.0852213
460.903	0.0865846
462.832	0.088134
464.76	0.0895816
466.689	0.0908588
468.617	0.0920882
470.546	0.0930933
472.474	0.0939027
474.403	0.0951541
476.331	0.0956791
478.26	0.0961992
480.188	0.0972343
482.116	0.0984066
484.045	0.0991486
485.974	0.100022
487.902	0.10064
489.83	0.101495
491.759	0.102349
493.687	0.103297
495.616	0.103964
497.544	0.105173
499.473	0.106268
501.401	0.106917
503.33	0.107629
505.258	0.108421
507.187	0.109269
509.115	0.110105
511.043	0.110628
512.972	0.111113
514.9	0.111752
516.829	0.11298
518.757	0.114096
520.686	0.114872
522.614	0.115618
524.543	0.116518
526.471	0.117149
528.4	0.117183
530.328	0.117062
532.257	0.117337
534.185	0.117566
536.114	0.118001
538.042	0.118611
539.971	0.119187
541.899	0.119129
543.827	0.119187
545.756	0.119826
547.684	0.120578
549.613	0.120521
551.541	0.120482
553.47	0.120638
555.398	0.120835
557.327	0.121137
559.255	0.121094
561.184	0.121228
563.112	0.121709
565.041	0.122026
566.969	0.122106
568.898	0.122193
570.826	0.122618
572.755	0.122816
574.683	0.12314
576.611	0.123943
578.54	0.124444
580.468	0.124628
582.397	0.125014
584.325	0.125643
586.254	0.126185
588.182	0.126916
590.111	0.127546
592.039	0.127899
593.968	0.128565
595.896	0.129292
597.824	0.129851
599.753	0.131143
601.682	0.132626
603.61	0.132914
605.538	0.131702
607.467	0.130465
609.395	0.129036
611.324	0.12923
613.252	0.130492
615.181	0.131503
617.109	0.132609
619.038	0.134259
620.966	0.136012
622.894	0.137601
624.823	0.138055
626.751	0.138457
628.68	0.139303
630.608	0.140293
632.537	0.14107
634.465	0.142196
636.394	0.143532
638.322	0.144735
640.251	0.146157
642.179	0.147835
644.108	0.149461
646.036	0.151097
647.965	0.152441
649.893	0.15378
651.822	0.155116
653.75	0.15691
655.678	0.158489
657.607	0.159985
659.535	0.161819
661.464	0.16396
663.392	0.165811
665.321	0.16668
667.249	0.166688
669.178	0.166203
671.106	0.164555
673.035	0.163667
674.963	0.163493
676.892	0.16367
678.82	0.165063
680.749	0.166553
682.677	0.167865
684.606	0.168347
686.534	0.168677
688.462	0.170182
690.391	0.171298
692.319	0.172263
694.248	0.173685
696.176	0.174342
698.105	0.175063
700.033	0.176663
