Measurement: Infrared, Infrared Data Processed
Mineral: Pyrope
Rruff sample: R050112
Ideal chemistry: Mg_3_Al_2_(SiO_4_)_3_
Locality: Cruzeiro mine, San Jose, Minas Gerais, Brazil
Source: Carlos and Paulo Vasconcelos
Description: Dark red crystal fragment
Measured chemistry: (Mg_1.49_Fe^2+^_1.18_Ca_0.29_Mn_0.04_)_Σ=3_(Al_1.99_Fe^3+^_0.01_)_Σ=2_(Si_1.00_O_4_)_3_
x	intensity
50.1401	0.0175838
52.0686	0.0175164
53.9971	0.0175832
55.9255	0.0194429
57.854	0.0199881
59.7825	0.0255628
61.7109	0.022345
63.6394	0.0245545
65.5679	0.0245787
67.4963	0.0247631
69.4248	0.0240012
71.3533	0.0267863
73.2817	0.0283533
75.2102	0.0308322
77.1387	0.0326577
79.0671	0.0345932
80.9956	0.0359888
82.9241	0.0383612
84.8525	0.0397611
86.781	0.0427605
88.7095	0.0429984
90.6379	0.0416194
92.5664	0.0425704
94.4948	0.0451661
96.4233	0.0457971
98.3518	0.0468121
100.28	0.047795
102.209	0.0483533
104.137	0.0476148
106.066	0.0487537
107.994	0.0491047
109.923	0.0512731
111.851	0.0516725
113.779	0.0518953
115.708	0.0521457
117.636	0.0529816
119.565	0.0526646
121.493	0.0528021
123.422	0.0525638
125.35	0.0533838
127.279	0.0534274
129.207	0.0536502
131.136	0.0545536
133.064	0.055153
134.993	0.0558473
136.921	0.0569726
138.85	0.0567876
140.778	0.0556442
142.707	0.0536152
144.635	0.0521741
146.563	0.0495055
148.492	0.0471039
150.42	0.0456795
152.349	0.046511
154.277	0.0480399
156.206	0.0495024
158.134	0.0495151
160.063	0.0493738
161.991	0.0493048
163.92	0.0490942
165.848	0.0493804
167.777	0.0506833
169.705	0.0522502
171.633	0.0545662
173.562	0.0564831
175.49	0.0575631
177.419	0.0583836
179.347	0.0593071
181.276	0.0597976
183.204	0.0605939
185.133	0.0615678
187.061	0.0620899
188.99	0.0618264
190.918	0.0620298
192.847	0.0620356
194.775	0.0621948
196.704	0.0618517
198.632	0.0616293
200.56	0.0614881
202.489	0.0613763
204.417	0.0597041
206.346	0.0587115
208.274	0.0578166
210.203	0.0567615
212.131	0.055836
214.06	0.0550524
215.988	0.0537051
217.917	0.0527989
219.845	0.0527131
221.774	0.0528033
223.702	0.0528666
225.631	0.0537003
227.559	0.0546071
229.488	0.0553609
231.416	0.0562323
233.344	0.0571199
235.273	0.0577762
237.201	0.0586377
239.13	0.0586134
241.058	0.0583622
242.987	0.0581688
244.915	0.0576402
246.844	0.0569872
248.772	0.0564879
250.701	0.0554346
252.629	0.0550263
254.558	0.0545908
256.486	0.054317
258.414	0.0549762
260.343	0.0560775
262.271	0.0571948
264.2	0.0584877
266.128	0.0594514
268.057	0.0606558
269.985	0.0622104
271.914	0.0637987
273.842	0.065019
275.771	0.0666452
277.699	0.0685234
279.628	0.0697802
281.556	0.0708877
283.485	0.0721795
285.413	0.0732712
287.341	0.0747092
289.27	0.0759822
291.198	0.0771329
293.127	0.078442
295.055	0.0795124
296.984	0.080215
298.912	0.0807674
300.841	0.0816946
302.769	0.0831567
304.698	0.0839771
306.626	0.084589
308.555	0.0851954
310.483	0.0859846
312.411	0.0869367
314.34	0.0882198
316.269	0.0888372
318.197	0.0891759
320.125	0.0896523
322.054	0.0903744
323.982	0.090347
325.911	0.09007
327.839	0.0900693
329.768	0.0896225
331.696	0.088551
333.625	0.087271
335.553	0.0860375
337.482	0.0852519
339.41	0.0846549
341.339	0.0841659
343.267	0.0838919
345.195	0.083738
347.124	0.0829516
349.052	0.0822351
350.981	0.0820141
352.909	0.0822239
354.838	0.083161
356.766	0.0846864
358.695	0.0864831
360.623	0.0885015
362.552	0.0903892
364.48	0.0919403
366.409	0.093643
368.337	0.0952788
370.265	0.0964078
372.194	0.0970328
374.122	0.0977177
376.051	0.0982677
377.979	0.0977879
379.908	0.0972124
381.836	0.0966955
383.765	0.0956143
385.693	0.0936513
387.622	0.0912519
389.55	0.0885265
391.479	0.0855629
393.407	0.0823858
395.336	0.0792802
397.264	0.0763209
399.192	0.0744495
401.121	0.0734832
403.049	0.073716
404.978	0.0751411
406.906	0.0771707
408.835	0.0799765
410.763	0.0830625
412.692	0.0852817
414.62	0.0872411
416.549	0.0886329
418.477	0.0897713
420.406	0.0912191
422.334	0.0936617
424.262	0.0962867
426.191	0.0984643
428.12	0.100517
430.048	0.10232
431.976	0.103555
433.905	0.104724
435.833	0.105678
437.762	0.106443
439.69	0.10677
441.619	0.106615
443.547	0.106319
445.476	0.10648
447.404	0.106514
449.333	0.10687
451.261	0.10752
453.19	0.107774
455.118	0.107676
457.046	0.107858
458.975	0.107803
460.903	0.106613
462.832	0.104982
464.76	0.103373
466.689	0.102069
468.617	0.102298
470.546	0.103459
472.474	0.104867
474.403	0.105643
476.331	0.105979
478.26	0.105488
480.188	0.104777
482.116	0.103713
484.045	0.102554
485.974	0.101019
487.902	0.0991304
489.83	0.097358
491.759	0.0958711
493.687	0.0944669
495.616	0.093051
497.544	0.0916805
499.473	0.0902767
501.401	0.0886186
503.33	0.0872463
505.258	0.0854625
507.187	0.0830977
509.115	0.080347
511.043	0.0777652
512.972	0.0748896
514.9	0.0723523
516.829	0.0703094
518.757	0.0684383
520.686	0.0668742
522.614	0.0666833
524.543	0.0671894
526.471	0.0682669
528.4	0.0692948
530.328	0.0685995
532.257	0.0668253
534.185	0.064602
536.114	0.0617369
538.042	0.0585053
539.971	0.0552228
541.899	0.0522758
543.827	0.0499742
545.756	0.0478075
547.684	0.0458703
549.613	0.0452709
551.541	0.0462874
553.47	0.0483298
555.398	0.0514621
557.327	0.0563359
559.255	0.0627606
561.184	0.0700243
563.112	0.0772219
565.041	0.0832242
566.969	0.0876274
568.898	0.0903064
570.826	0.0912611
572.755	0.0904926
574.683	0.0882065
576.611	0.0855194
578.54	0.082274
580.468	0.078538
582.397	0.0744406
584.325	0.0704813
586.254	0.0667836
588.182	0.0626849
590.111	0.0586225
592.039	0.055056
593.968	0.0515993
595.896	0.0486062
597.824	0.0459131
599.753	0.0432758
601.682	0.0406515
603.61	0.0388035
605.538	0.0373156
607.467	0.0355845
609.395	0.0337389
611.324	0.0322684
613.252	0.0314023
615.181	0.0307844
617.109	0.0310131
619.038	0.0314847
620.966	0.0314448
622.894	0.031278
624.823	0.0316052
626.751	0.0329
628.68	0.0347219
630.608	0.0358232
632.537	0.0365922
634.465	0.0374682
636.394	0.0379424
638.322	0.0380996
640.251	0.0382179
642.179	0.0383121
644.108	0.0386813
646.036	0.0388543
647.965	0.0386344
649.893	0.0385218
651.822	0.0381522
653.75	0.0376714
655.678	0.0375971
657.607	0.0376989
659.535	0.0375286
661.464	0.0370058
663.392	0.0365472
665.321	0.0365847
667.249	0.0371031
669.178	0.0369119
671.106	0.0366479
673.035	0.0366886
674.963	0.0366971
676.892	0.0366592
678.82	0.0369303
680.749	0.0370902
682.677	0.0369647
684.606	0.037312
686.534	0.0380163
688.462	0.0398071
690.391	0.0406756
692.319	0.0404848
694.248	0.0408596
696.176	0.0422741
698.105	0.0424541
700.033	0.0412745
