Measurement: Infrared, Infrared Data Processed
Mineral: Pyrophyllite
Rruff sample: R050051
Ideal chemistry: Al_2_Si_4_O_10_(OH)_2_
Locality: Cottonstone Mountain, Mecklenburg County, North Carolina, USA
Source: University of Arizona Mineral Museum
Description: Radiating lamellar aggregates
Measured chemistry: (Al_.991_Fe_.008_Mg_.001_)_2_Si_4_O_10_(OH)_2_
x	intensity
399.193	0.459567
408.835	0.482051
418.477	0.497731
428.12	0.478446
437.762	0.462618
447.404	0.425528
457.047	0.378126
466.689	0.33796
476.331	0.331823
485.974	0.263177
495.616	0.219288
505.258	0.236483
514.901	0.354588
524.543	0.400114
534.185	0.458546
543.828	0.405459
553.47	0.385916
563.112	0.380145
572.755	0.35574
582.397	0.342821
592.039	0.349101
601.682	0.34839
611.324	0.335638
620.966	0.313606
630.609	0.315171
640.251	0.327656
649.893	0.307676
659.536	0.284989
669.178	0.264628
678.82	0.247358
688.463	0.232628
698.105	0.219899
707.747	0.207919
717.39	0.196941
727.032	0.18705
736.674	0.178284
746.317	0.169335
755.959	0.162331
765.601	0.156527
775.244	0.150426
784.886	0.145372
794.528	0.141116
804.171	0.13929
813.813	0.13872
823.455	0.128052
833.098	0.136868
842.74	0.112093
852.382	0.108523
862.025	0.0898622
871.667	0.0788497
881.309	0.0720872
890.952	0.0699966
900.594	0.0741686
910.236	0.0799023
919.879	0.0926911
929.521	0.116038
939.163	0.160803
948.806	0.203406
958.448	0.120067
968.09	0.111781
977.733	0.127094
987.375	0.147717
997.017	0.173999
1006.66	0.203824
1016.3	0.237267
1025.94	0.273833
1035.59	0.30623
1045.23	0.324853
1054.87	0.265574
1064.51	0.257627
1074.16	0.205842
1083.8	0.143634
1093.44	0.106418
1103.08	0.0792183
1112.72	0.0767051
1122.37	0.13351
1132.01	0.0848475
1141.65	0.0619778
1151.3	0.0485595
1160.94	0.0392743
1170.58	0.0327237
1180.22	0.0275227
1189.86	0.023022
1199.51	0.0201152
1209.15	0.0171936
1218.79	0.0145242
1228.43	0.0123365
1238.08	0.0101757
1247.72	0.0089471
1257.36	0.00797636
1267	0.00709846
1276.64	0.00739719
1286.29	0.00714463
1295.93	0.00707002
1305.57	0.00661971
1315.21	0.0064958
1324.86	0.00609429
1334.5	0.00574008
1344.14	0.00543758
1353.78	0.00563491
1363.43	0.0052568
1373.07	0.00710828
1382.71	0.00587703
1392.35	0.00539785
1401.99	0.0053697
1411.64	0.00588398
1421.28	0.00562869
1430.92	0.00583192
1440.57	0.00620739
1450.21	0.00708038
1459.85	0.00706134
1469.49	0.00565261
1479.13	0.0044539
1488.78	0.00376194
1498.42	0.00371022
1508.06	0.00327764
1517.7	0.00393112
1527.35	0.00470713
1536.99	0.0048803
1546.63	0.00551972
1556.27	0.005825
1565.91	0.00698548
1575.56	0.00643974
1585.2	0.00717797
1594.84	0.0072802
1604.48	0.00738774
1614.13	0.00758144
1623.77	0.00772952
1633.41	0.00729246
1643.05	0.00748112
1652.7	0.0057046
1662.34	0.00639533
1671.98	0.00569251
1681.62	0.00484749
1691.27	0.00535312
1700.91	0.00351246
1710.55	0.00408268
1720.19	0.00371819
1729.84	0.00255379
1739.48	0.000752405
1749.12	0.000618963
1758.76	0.0028642
1768.4	0.0033191
1778.05	0.00369076
1787.69	0.00360812
1797.33	0.00360632
1806.97	0.00377191
1816.62	0.00302816
1826.26	0.00343793
1835.9	0.0040395
1845.54	0.00332039
1855.18	0.0039752
1864.83	0.00422579
1874.47	0.00467414
1884.11	0.0039427
1893.75	0.00396451
1903.4	0.00180166
1913.04	0.0037496
1922.68	0.00388895
1932.32	0.00189138
1941.97	0.0020038
1951.61	0.00184133
1961.25	0.00121
1970.89	-0.00208722
1980.54	-7.75482e-05
1990.18	-0.000819296
1999.82	-0.00218807
2009.46	-0.00170355
2019.11	-0.00690741
2028.75	-0.00300615
2038.39	-0.00506184
2048.03	-0.00100328
2057.67	-0.00126975
2067.32	-0.00199481
2076.96	0.000265526
2086.6	-0.000369249
2096.24	-0.000664242
2105.89	-0.000606542
2115.53	-0.000380577
2125.17	-0.00102161
2134.81	-0.00386622
2144.45	-0.00347418
2154.1	-0.00669731
2163.74	0.00247825
2173.38	-0.00159422
2183.02	0.00131704
2192.67	0.00204587
2202.31	0.00317297
2211.95	0.00275721
2221.59	0.00642959
2231.24	0.00225658
2240.88	0.00143856
2250.52	0.00208418
2260.16	0.0038553
2269.8	0.0038948
2279.45	0.00559162
2289.09	0.00644975
2298.73	0.00467021
2308.38	0.00673052
2318.02	0.00719399
2327.66	0.00756454
2337.3	0.00685137
2346.94	0.00669006
2356.59	0.007657
2366.23	0.00677617
2375.87	0.00698051
2385.51	0.00658734
2395.16	0.00632847
2404.8	0.00662248
2414.44	0.00650516
2424.08	0.00559707
2433.72	0.00687669
2443.37	0.00770448
2453.01	0.00722905
2462.65	0.00714384
2472.29	0.00632233
2481.94	0.00742637
2491.58	0.00676363
2501.22	0.0075842
2510.86	0.00738537
2520.51	0.00636362
2530.15	0.00783939
2539.79	0.00726848
2549.43	0.0087108
2559.07	0.00736479
2568.72	0.00764188
2578.36	0.00761238
2588	0.00732983
2597.64	0.00755388
2607.29	0.0077628
2616.93	0.0086921
2626.57	0.00797051
2636.21	0.00920698
2645.86	0.00871242
2655.5	0.00781366
2665.14	0.00815606
2674.78	0.00852792
2684.43	0.0081796
2694.07	0.00795672
2703.71	0.00899076
2713.35	0.00810366
2722.99	0.00820052
2732.64	0.00904164
2742.28	0.00792183
2751.92	0.00869197
2761.56	0.00949447
2771.21	0.0101759
2780.85	0.010414
2790.49	0.0090638
2800.13	0.0105681
2809.78	0.0103503
2819.42	0.0106271
2829.06	0.0118979
2838.7	0.0143839
2848.34	0.0102349
2857.99	0.010441
2867.63	0.0143087
2877.27	0.0154594
2886.91	0.0147993
2896.56	0.0144019
2906.2	0.0161279
2915.84	0.0172621
2925.48	0.0161178
2935.13	0.0134881
2944.77	0.0173824
2954.41	0.0195852
2964.05	0.0184812
2973.7	0.0152295
2983.34	0.0150936
2992.98	0.0144589
3002.62	0.0142694
3012.26	0.0136399
3021.91	0.0146222
3031.55	0.0154527
3041.19	0.0159079
3050.83	0.0169208
3060.48	0.0178804
3070.12	0.01891
3079.76	0.0189736
3089.4	0.0187086
3099.05	0.0179742
3108.69	0.0188856
3118.33	0.0188553
3127.97	0.0190961
3137.61	0.0214409
3147.26	0.0203641
3156.9	0.0231727
3166.54	0.023904
3176.18	0.0220106
3185.83	0.0236781
3195.47	0.0251633
3205.11	0.0231139
3214.75	0.0250664
3224.4	0.0259418
3234.04	0.0255547
3243.68	0.026119
3253.32	0.0269563
3262.97	0.0278834
3272.61	0.0277868
3282.25	0.0293186
3291.89	0.02973
3301.53	0.0312378
3311.18	0.0289784
3320.82	0.0321771
3330.46	0.0312161
3340.1	0.0298765
3349.75	0.0304698
3359.39	0.0327017
3369.03	0.0341639
3378.67	0.0333745
3388.32	0.0348647
3397.96	0.0343811
3407.6	0.034334
3417.24	0.0322213
3426.89	0.0331684
3436.53	0.0335268
3446.17	0.0322412
3455.81	0.0335826
3465.45	0.0361231
3475.1	0.0349542
3484.74	0.0341748
3494.38	0.0328234
3504.02	0.0345945
3513.67	0.0321241
3523.31	0.0305789
3532.95	0.0320641
3542.59	0.0295445
3552.24	0.0282546
3561.88	0.0266374
3571.52	0.0299055
3581.16	0.0263188
3590.8	0.0299977
3600.45	0.0266708
3610.09	0.0290663
3619.73	0.0227745
3629.37	0.0233169
3639.02	0.0197824
3648.66	0.0258064
3658.3	0.0327904
3667.94	0.0851728
3677.59	0.11214
3687.23	0.0214511
3696.87	0.0173325
3706.51	0.00973782
3716.16	0.0180471
3725.8	0.0165889
3735.44	0.0100251
3745.08	0.0139189
3754.72	0.0159588
3764.37	0.0122768
3774.01	0.0136502
3783.65	0.0179745
3793.29	0.0192459
3802.94	0.0184192
3812.58	0.0153189
3822.22	0.0144688
3831.86	0.0152222
3841.51	0.0193954
3851.15	0.0121888
3860.79	0.0121117
3870.43	0.0115424
3880.07	0.0179631
3889.72	0.0236772
3899.36	0.0142708
3909	0.0156427
3918.64	0.0176192
3928.29	0.0207971
3937.93	0.0160101
3947.57	0.0191468
3957.21	0.0195013
3966.86	0.0154116
3976.5	0.0198515
3986.14	0.0178472
3995.78	0.0163464
