Measurement: Infrared, Infrared Data Processed
Mineral: Pyromorphite
Rruff sample: R050015
Ideal chemistry: Pb^2+^_5_(PO_4_)_3_Cl
Locality: Bunker Hill mine, Shoshone County, Idaho, USA
Source: Eugene Schlepp
Description: Yellowish green prismatic hexagonal single crystals
Measured chemistry: Pb_5.00_((P_0.88_As_0.12_)O_4_)_3_Cl_1.00_
x	intensity
399.193	0.140662
408.835	0.164029
418.477	0.180885
428.12	0.149882
437.762	0.108309
447.404	0.0597065
457.047	0.0638707
466.689	0.0834421
476.331	0.114633
485.974	0.151641
495.616	0.19941
505.258	0.259481
514.901	0.323533
524.543	0.39392
534.185	0.422041
543.828	0.265024
553.47	0.154326
563.112	0.265371
572.755	0.219726
582.397	0.0698025
592.039	0.0358094
601.682	0.0329422
611.324	0.0349383
620.966	0.0400259
630.609	0.0455961
640.251	0.053902
649.893	0.0645828
659.536	0.0766132
669.178	0.0906253
678.82	0.105047
688.463	0.121092
698.105	0.139007
707.747	0.158895
717.39	0.18172
727.032	0.205864
736.674	0.233196
746.317	0.26463
755.959	0.30131
765.601	0.344879
775.244	0.398731
784.886	0.426777
794.528	0.354483
804.171	0.351278
813.813	0.332024
823.455	0.224061
833.098	0.1667
842.74	0.212252
852.382	0.264464
862.025	0.310671
871.667	0.355373
881.309	0.400735
890.952	0.444803
900.594	0.489458
910.236	0.537138
919.879	0.578441
929.521	0.564907
939.163	0.624655
948.806	0.633123
958.448	0.57128
968.09	0.454113
977.733	0.382924
987.375	0.372127
997.017	0.383083
1006.66	0.377872
1016.3	0.342931
1025.94	0.27634
1035.59	0.218068
1045.23	0.174798
1054.87	0.134346
1064.51	0.0958705
1074.16	0.0666622
1083.8	0.0488657
1093.44	0.0374989
1103.08	0.0305774
1112.72	0.0259602
1122.37	0.0220514
1132.01	0.0192724
1141.65	0.0177776
1151.3	0.0163852
1160.94	0.0158157
1170.58	0.01548
1180.22	0.0156666
1189.86	0.0160873
1199.51	0.0166482
1209.15	0.0172628
1218.79	0.017992
1228.43	0.0189115
1238.08	0.0198841
1247.72	0.0215122
1257.36	0.0231611
1267	0.0246506
1276.64	0.027186
1286.29	0.0298778
1295.93	0.0338728
1305.57	0.0395822
1315.21	0.0433089
1324.86	0.0418991
1334.5	0.040443
1344.14	0.0401926
1353.78	0.0410931
1363.43	0.0425831
1373.07	0.044689
1382.71	0.0465491
1392.35	0.0484468
1401.99	0.0506199
1411.64	0.0526224
1421.28	0.054262
1430.92	0.0561649
1440.57	0.0567428
1450.21	0.0550869
1459.85	0.0542974
1469.49	0.0530549
1479.13	0.0528525
1488.78	0.0532829
1498.42	0.0542451
1508.06	0.0549235
1517.7	0.0564427
1527.35	0.0579656
1536.99	0.0591705
1546.63	0.0606444
1556.27	0.0623435
1565.91	0.0634846
1575.56	0.0640346
1585.2	0.0653347
1594.84	0.066565
1604.48	0.0675093
1614.13	0.0689264
1623.77	0.0698858
1633.41	0.0704784
1643.05	0.0708762
1652.7	0.0718238
1662.34	0.0732159
1671.98	0.0742889
1681.62	0.0747465
1691.27	0.0757412
1700.91	0.0765607
1710.55	0.0779766
1720.19	0.0788807
1729.84	0.080225
1739.48	0.0796373
1749.12	0.0801459
1758.76	0.081797
1768.4	0.0829672
1778.05	0.0839658
1787.69	0.0852428
1797.33	0.0862922
1806.97	0.087729
1816.62	0.0884715
1826.26	0.0916379
1835.9	0.0946157
1845.54	0.0928037
1855.18	0.0946103
1864.83	0.0961486
1874.47	0.0955722
1884.11	0.0962486
1893.75	0.0976015
1903.4	0.0988671
1913.04	0.10012
1922.68	0.100842
1932.32	0.0987768
1941.97	0.0992902
1951.61	0.0999552
1961.25	0.0972822
1970.89	0.0972103
1980.54	0.101927
1990.18	0.101305
1999.82	0.0992446
2009.46	0.0980512
2019.11	0.0980928
2028.75	0.0996911
2038.39	0.104597
2048.03	0.107731
2057.67	0.107174
2067.32	0.109209
2076.96	0.112341
2086.6	0.113213
2096.24	0.113135
2105.89	0.114253
2115.53	0.116885
2125.17	0.11575
2134.81	0.114791
2144.45	0.116136
2154.1	0.116147
2163.74	0.124251
2173.38	0.123649
2183.02	0.12544
2192.67	0.125838
2202.31	0.127378
2211.95	0.127733
2221.59	0.128979
2231.24	0.129537
2240.88	0.132571
2250.52	0.131985
2260.16	0.132996
2269.8	0.134012
2279.45	0.136145
2289.09	0.136284
2298.73	0.136728
2308.38	0.137534
2318.02	0.139689
2327.66	0.139585
2337.3	0.140273
2346.94	0.140538
2356.59	0.141894
2366.23	0.142768
2375.87	0.143174
2385.51	0.144152
2395.16	0.145234
2404.8	0.145262
2414.44	0.147021
2424.08	0.148382
2433.72	0.148879
2443.37	0.149609
2453.01	0.150954
2462.65	0.151426
2472.29	0.152636
2481.94	0.15356
2491.58	0.154168
2501.22	0.154638
2510.86	0.1554
2520.51	0.156399
2530.15	0.15745
2539.79	0.158192
2549.43	0.158852
2559.07	0.159784
2568.72	0.161242
2578.36	0.161152
2588	0.162806
2597.64	0.163725
2607.29	0.163476
2616.93	0.164543
2626.57	0.166271
2636.21	0.166211
2645.86	0.167574
2655.5	0.16809
2665.14	0.167904
2674.78	0.168342
2684.43	0.16988
2694.07	0.170639
2703.71	0.172088
2713.35	0.172674
2722.99	0.173971
2732.64	0.174533
2742.28	0.175551
2751.92	0.175572
2761.56	0.177764
2771.21	0.177897
2780.85	0.178625
2790.49	0.179221
2800.13	0.18048
2809.78	0.181823
2819.42	0.182661
2829.06	0.183269
2838.7	0.184563
2848.34	0.185676
2857.99	0.185208
2867.63	0.186197
2877.27	0.187109
2886.91	0.189039
2896.56	0.188843
2906.2	0.190487
2915.84	0.191514
2925.48	0.191722
2935.13	0.189743
2944.77	0.190793
2954.41	0.190418
2964.05	0.192775
2973.7	0.19242
2983.34	0.192488
2992.98	0.195324
3002.62	0.195196
3012.26	0.196902
3021.91	0.197569
3031.55	0.199331
3041.19	0.199471
3050.83	0.198906
3060.48	0.201382
3070.12	0.201798
3079.76	0.202231
3089.4	0.204009
3099.05	0.205115
3108.69	0.205194
3118.33	0.206789
3127.97	0.20808
3137.61	0.209283
3147.26	0.211405
3156.9	0.210612
3166.54	0.209902
3176.18	0.212448
3185.83	0.212577
3195.47	0.214365
3205.11	0.215628
3214.75	0.216805
3224.4	0.216484
3234.04	0.218362
3243.68	0.219386
3253.32	0.220724
3262.97	0.220837
3272.61	0.221609
3282.25	0.221864
3291.89	0.224385
3301.53	0.22382
3311.18	0.225431
3320.82	0.227374
3330.46	0.22618
3340.1	0.228275
3349.75	0.228917
3359.39	0.229802
3369.03	0.230452
3378.67	0.229843
3388.32	0.231769
3397.96	0.232278
3407.6	0.232731
3417.24	0.232734
3426.89	0.232272
3436.53	0.234452
3446.17	0.233949
3455.81	0.234584
3465.45	0.236643
3475.1	0.23452
3484.74	0.236896
3494.38	0.235583
3504.02	0.236926
3513.67	0.237829
3523.31	0.237234
3532.95	0.236492
3542.59	0.239379
3552.24	0.238106
3561.88	0.239743
3571.52	0.237718
3581.16	0.237814
3590.8	0.239648
3600.45	0.241095
3610.09	0.242001
3619.73	0.240365
3629.37	0.242803
3639.02	0.244252
3648.66	0.242178
3658.3	0.243418
3667.94	0.244811
3677.59	0.246198
3687.23	0.243866
3696.87	0.245081
3706.51	0.247787
3716.16	0.247709
3725.8	0.24955
3735.44	0.251107
3745.08	0.249615
3754.72	0.251733
3764.37	0.252562
3774.01	0.253252
3783.65	0.25219
3793.29	0.254358
3802.94	0.256589
3812.58	0.254771
3822.22	0.255866
3831.86	0.257454
3841.51	0.257263
3851.15	0.257861
3860.79	0.259726
3870.43	0.258472
3880.07	0.261399
3889.72	0.261533
3899.36	0.262717
3909	0.265601
3918.64	0.264146
3928.29	0.264015
3937.93	0.26322
3947.57	0.266241
3957.21	0.267455
3966.86	0.267217
3976.5	0.267122
3986.14	0.268164
3995.78	0.271584
