Measurement: Infrared, Infrared Data Processed
Mineral: Reedmergnerite
Rruff sample: R060096
Ideal chemistry: NaBSi_3_O_8_
Locality: Dara-i-Pioz, Tadjikistan
Source: University of Arizona Mineral Museum
Description: Colorless fragment
Measured chemistry: Na_1.00_B_1.00_Si_3.00_O_8_
x	intensity
399.193	0.0760784
408.835	0.114304
418.477	0.144078
428.12	0.0981319
437.762	0.0903835
447.404	0.117029
457.047	0.127668
466.689	0.1519
476.331	0.1011
485.974	0.0670797
495.616	0.0758444
505.258	0.0589066
514.901	0.0352551
524.543	0.0475377
534.185	0.069807
543.828	0.0353453
553.47	0.0199722
563.112	0.0190418
572.755	0.0208112
582.397	0.0236659
592.039	0.0296874
601.682	0.04135
611.324	0.0750554
620.966	0.056085
630.609	0.0629759
640.251	0.0961736
649.893	0.13231
659.536	0.129164
669.178	0.0736661
678.82	0.0673737
688.463	0.103732
698.105	0.0418485
707.747	0.0287711
717.39	0.0405606
727.032	0.0682025
736.674	0.0243759
746.317	0.0218195
755.959	0.0249531
765.601	0.0343274
775.244	0.0580946
784.886	0.0375827
794.528	0.0337038
804.171	0.0352746
813.813	0.0372794
823.455	0.0433096
833.098	0.0523835
842.74	0.0685487
852.382	0.0989124
862.025	0.117783
871.667	0.0770099
881.309	0.0843702
890.952	0.102284
900.594	0.127421
910.236	0.163347
919.879	0.166656
929.521	0.196594
939.163	0.219758
948.806	0.237753
958.448	0.23332
968.09	0.232424
977.733	0.255938
987.375	0.251795
997.017	0.230644
1006.66	0.213901
1016.3	0.206226
1025.94	0.195395
1035.59	0.194826
1045.23	0.188823
1054.87	0.161047
1064.51	0.127639
1074.16	0.110646
1083.8	0.11311
1093.44	0.11604
1103.08	0.121891
1112.72	0.142
1122.37	0.148496
1132.01	0.135803
1141.65	0.126317
1151.3	0.126253
1160.94	0.133343
1170.58	0.12893
1180.22	0.104945
1189.86	0.0815658
1199.51	0.0625172
1209.15	0.0440026
1218.79	0.028669
1228.43	0.0190667
1238.08	0.0134508
1247.72	0.00994087
1257.36	0.00743823
1267	0.00554293
1276.64	0.00436673
1286.29	0.00385099
1295.93	0.00331677
1305.57	0.00275017
1315.21	0.00211274
1324.86	0.00185541
1334.5	0.00134013
1344.14	0.0011562
1353.78	0.000912607
1363.43	0.000205133
1373.07	5.32229e-05
1382.71	0.00036398
1392.35	0.00063223
1401.99	0.00076071
1411.64	0.000646154
1421.28	-1.81707e-06
1430.92	5.16074e-05
1440.57	5.78121e-05
1450.21	-0.000403141
1459.85	-0.00125298
1469.49	-0.00110232
1479.13	-0.000423965
1488.78	-0.00148066
1498.42	-0.00182184
1508.06	-0.00360963
1517.7	-0.00255315
1527.35	-0.0021381
1536.99	-0.00268793
1546.63	-0.00190987
1556.27	-0.00381828
1565.91	-0.00164288
1575.56	-0.00387488
1585.2	-0.00158667
1594.84	-0.00130503
1604.48	-0.00118703
1614.13	-0.00163253
1623.77	-0.00186174
1633.41	-0.00184436
1643.05	-0.00141852
1652.7	-0.00675715
1662.34	-0.00202981
1671.98	-0.00215181
1681.62	-0.00233948
1691.27	-0.00145253
1700.91	-0.00508936
1710.55	-0.00207774
1720.19	-0.00312971
1729.84	-0.00304369
1739.48	-0.00409722
1749.12	-0.00444451
1758.76	-0.00299033
1768.4	-0.00354605
1778.05	-0.00299042
1787.69	-0.00274253
1797.33	-0.00338777
1806.97	-0.00303456
1816.62	-0.00332191
1826.26	-0.00370756
1835.9	-0.00385604
1845.54	-0.00451434
1855.18	-0.00404559
1864.83	-0.00453203
1874.47	-0.00455432
1884.11	-0.00546287
1893.75	-0.00496436
1903.4	-0.00530337
1913.04	-0.00565592
1922.68	-0.00603683
1932.32	-0.00574599
1941.97	-0.00656296
1951.61	-0.00647104
1961.25	-0.00633016
1970.89	-0.00861948
1980.54	-0.00772218
1990.18	-0.00752153
1999.82	-0.00735428
2009.46	-0.00670738
2019.11	-0.00774754
2028.75	-0.00787448
2038.39	-0.00779909
2048.03	-0.00825342
2057.67	-0.00766455
2067.32	-0.00798138
2076.96	-0.00741813
2086.6	-0.00742431
2096.24	-0.00764312
2105.89	-0.00629294
2115.53	-0.00750387
2125.17	-0.00699845
2134.81	-0.00812545
2144.45	-0.00707052
2154.1	-0.00621129
2163.74	-0.00743272
2173.38	-0.00777984
2183.02	-0.00694147
2192.67	-0.00845182
2202.31	-0.00670065
2211.95	-0.00778087
2221.59	-0.00799697
2231.24	-0.00768035
2240.88	-0.00680073
2250.52	-0.00713647
2260.16	-0.00788984
2269.8	-0.0078907
2279.45	-0.00772598
2289.09	-0.00791785
2298.73	-0.00782294
2308.38	-0.00764033
2318.02	-0.00685112
2327.66	-0.00619061
2337.3	-0.00598747
2346.94	-0.00668589
2356.59	-0.00614998
2366.23	-0.00560483
2375.87	-0.00703236
2385.51	-0.00804654
2395.16	-0.00798555
2404.8	-0.00880435
2414.44	-0.00767966
2424.08	-0.00763485
2433.72	-0.00801227
2443.37	-0.00795366
2453.01	-0.0077321
2462.65	-0.00772259
2472.29	-0.0084209
2481.94	-0.00802813
2491.58	-0.00799567
2501.22	-0.00800394
2510.86	-0.00844674
2520.51	-0.00835563
2530.15	-0.00796543
2539.79	-0.00804842
2549.43	-0.00767114
2559.07	-0.00831964
2568.72	-0.00806027
2578.36	-0.0082581
2588	-0.00804621
2597.64	-0.0079939
2607.29	-0.00806723
2616.93	-0.00765859
2626.57	-0.00720341
2636.21	-0.00788755
2645.86	-0.00745965
2655.5	-0.00755858
2665.14	-0.00777432
2674.78	-0.00777637
2684.43	-0.0076213
2694.07	-0.00782296
2703.71	-0.00778961
2713.35	-0.00737164
2722.99	-0.00740093
2732.64	-0.00743042
2742.28	-0.00737242
2751.92	-0.00745013
2761.56	-0.00755865
2771.21	-0.00751353
2780.85	-0.00784321
2790.49	-0.00789191
2800.13	-0.00780491
2809.78	-0.00815903
2819.42	-0.00795949
2829.06	-0.00804344
2838.7	-0.00797285
2848.34	-0.0101408
2857.99	-0.00955944
2867.63	-0.00888163
2877.27	-0.00887203
2886.91	-0.008835
2896.56	-0.00939537
2906.2	-0.00962496
2915.84	-0.0114924
2925.48	-0.0115155
2935.13	-0.0104636
2944.77	-0.00943182
2954.41	-0.00951107
2964.05	-0.00930258
2973.7	-0.00935364
2983.34	-0.00915558
2992.98	-0.00916721
3002.62	-0.00961797
3012.26	-0.00922761
3021.91	-0.0089985
3031.55	-0.00971204
3041.19	-0.00937036
3050.83	-0.00950057
3060.48	-0.00975153
3070.12	-0.00979047
3079.76	-0.00952678
3089.4	-0.00977914
3099.05	-0.00947766
3108.69	-0.00998086
3118.33	-0.00952061
3127.97	-0.0098196
3137.61	-0.00954634
3147.26	-0.0097975
3156.9	-0.00981499
3166.54	-0.0096849
3176.18	-0.00972402
3185.83	-0.00986038
3195.47	-0.00959628
3205.11	-0.00998517
3214.75	-0.0095344
3224.4	-0.00979644
3234.04	-0.00967412
3243.68	-0.00963284
3253.32	-0.0104707
3262.97	-0.0100701
3272.61	-0.0102996
3282.25	-0.0108577
3291.89	-0.0100178
3301.53	-0.0106191
3311.18	-0.0106299
3320.82	-0.0110748
3330.46	-0.0107828
3340.1	-0.0110977
3349.75	-0.0108426
3359.39	-0.010791
3369.03	-0.0113619
3378.67	-0.0104238
3388.32	-0.01112
3397.96	-0.0111037
3407.6	-0.0122826
3417.24	-0.011073
3426.89	-0.0115114
3436.53	-0.0115997
3446.17	-0.0121276
3455.81	-0.0120283
3465.45	-0.0115726
3475.1	-0.011961
3484.74	-0.0120266
3494.38	-0.0124182
3504.02	-0.0131651
3513.67	-0.0126611
3523.31	-0.0130604
3532.95	-0.0119865
3542.59	-0.0124157
3552.24	-0.0136606
3561.88	-0.013333
3571.52	-0.013083
3581.16	-0.0137845
3590.8	-0.0142513
3600.45	-0.0138376
3610.09	-0.015607
3619.73	-0.015731
3629.37	-0.0188658
3639.02	-0.0155762
3648.66	-0.0202158
3658.3	-0.017134
3667.94	-0.0175677
3677.59	-0.0187633
3687.23	-0.02088
3696.87	-0.0173972
3706.51	-0.0171904
3716.16	-0.0172487
3725.8	-0.0179199
3735.44	-0.0210669
3745.08	-0.0251022
3754.72	-0.0185708
3764.37	-0.0189819
3774.01	-0.0175723
3783.65	-0.0184446
3793.29	-0.0178012
3802.94	-0.0211124
3812.58	-0.0181353
3822.22	-0.0204884
3831.86	-0.0199002
3841.51	-0.0199604
3851.15	-0.0242242
3860.79	-0.0190099
3870.43	-0.0226402
3880.07	-0.0203483
3889.72	-0.019768
3899.36	-0.020347
3909	-0.0184889
3918.64	-0.0184722
3928.29	-0.0190527
3937.93	-0.0194197
3947.57	-0.0190116
3957.21	-0.0186924
3966.86	-0.0193778
3976.5	-0.0198651
3986.14	-0.0189314
3995.78	-0.0194639
