Measurement: Infrared, Infrared Data Processed
Mineral: Riebeckite
Rruff sample: R050082
Ideal chemistry: [box]Na_2_(Fe^2+^_3_Fe^3+^_2_)Si_8_O_22_(OH)_2_
Locality: Mt. Malosa, Zomba, Chilwa, Alkaline Area, Malawi
Source: Rock Currier
Description: Black elongated prisms
Measured chemistry: ([box]_0.63_Na_0.19_K_0.18_)(Na_1.58_Ca_0.42_)_Σ=2_Fe^2+^_3.00_(Fe^3+^_1.30_Fe^2+^_0.45_Mn_0.15_Mg_0.05_Ti_0.05_)_Σ=2_(Si_0.98_Al_0.02_)_8_O_22_(OH)_2_
x	intensity
399.193	0
408.835	0.170853
418.477	0.197652
428.12	0.222393
437.762	0.247176
447.404	0.250074
457.047	0.216232
466.689	0.189925
476.331	0.18339
485.974	0.186211
495.616	0.170488
505.258	0.145885
514.901	0.123321
524.543	0.104094
534.185	0.100693
543.828	0.0878007
553.47	0.0604256
563.112	0.039916
572.755	0.032647
582.397	0.0327749
592.039	0.0378522
601.682	0.045689
611.324	0.0550064
620.966	0.0769976
630.609	0.0904055
640.251	0.0695878
649.893	0.0610099
659.536	0.0583315
669.178	0.049594
678.82	0.0556784
688.463	0.0660986
698.105	0.0551669
707.747	0.0495889
717.39	0.0531095
727.032	0.0540811
736.674	0.057629
746.317	0.0688502
755.959	0.0774393
765.601	0.0841923
775.244	0.0925336
784.886	0.0642434
794.528	0.0603788
804.171	0.0670441
813.813	0.0776921
823.455	0.0922508
833.098	0.109801
842.74	0.132454
852.382	0.159251
862.025	0.187913
871.667	0.213912
881.309	0.223126
890.952	0.237558
900.594	0.256185
910.236	0.283923
919.879	0.310621
929.521	0.334814
939.163	0.349692
948.806	0.349581
958.448	0.332549
968.09	0.303761
977.733	0.271322
987.375	0.253184
997.017	0.220886
1006.66	0.185221
1016.3	0.164084
1025.94	0.15365
1035.59	0.143433
1045.23	0.1289
1054.87	0.113939
1064.51	0.110623
1074.16	0.103584
1083.8	0.0957272
1093.44	0.0922656
1103.08	0.0901398
1112.72	0.0809192
1122.37	0.0642459
1132.01	0.0455134
1141.65	0.0395745
1151.3	0.0230344
1160.94	0.0132167
1170.58	0.00913439
1180.22	0.00751268
1189.86	0.00628839
1199.51	0.00567627
1209.15	0.00501532
1218.79	0.00450372
1228.43	0.00428174
1238.08	0.00410295
1247.72	0.00402423
1257.36	0.00387987
1267	0.0038134
1276.64	0.00384263
1286.29	0.00417644
1295.93	0.00426792
1305.57	0.00468403
1315.21	0.00485947
1324.86	0.00463204
1334.5	0.00503557
1344.14	0.00530372
1353.78	0.00527433
1363.43	0.00522442
1373.07	0.00528
1382.71	0.00556165
1392.35	0.0056164
1401.99	0.00568961
1411.64	0.00562564
1421.28	0.00573878
1430.92	0.00581709
1440.57	0.00600986
1450.21	0.00598042
1459.85	0.0058242
1469.49	0.00587122
1479.13	0.00627913
1488.78	0.00617911
1498.42	0.00651137
1508.06	0.00638537
1517.7	0.00670179
1527.35	0.00696321
1536.99	0.00718367
1546.63	0.00758993
1556.27	0.00781328
1565.91	0.00837669
1575.56	0.00859688
1585.2	0.00900169
1594.84	0.00940046
1604.48	0.0097916
1614.13	0.00998648
1623.77	0.0100179
1633.41	0.00978361
1643.05	0.00992268
1652.7	0.00930828
1662.34	0.00938357
1671.98	0.00951764
1681.62	0.00926972
1691.27	0.00920057
1700.91	0.00907373
1710.55	0.00916224
1720.19	0.00929138
1729.84	0.00860448
1739.48	0.00849056
1749.12	0.0086688
1758.76	0.0089652
1768.4	0.00947229
1778.05	0.00890835
1787.69	0.00939234
1797.33	0.00925164
1806.97	0.00888909
1816.62	0.00884272
1826.26	0.00889271
1835.9	0.00859733
1845.54	0.00882145
1855.18	0.00828323
1864.83	0.00868364
1874.47	0.00835484
1884.11	0.00837069
1893.75	0.00773525
1903.4	0.00695347
1913.04	0.00733727
1922.68	0.00594242
1932.32	0.00581561
1941.97	0.00671978
1951.61	0.00494491
1961.25	0.0047615
1970.89	0.00370205
1980.54	0.00651938
1990.18	0.00616238
1999.82	0.00506465
2009.46	0.00701843
2019.11	0.00590972
2028.75	0.00760839
2038.39	0.00519983
2048.03	0.009457
2057.67	0.00737824
2067.32	0.00893571
2076.96	0.0107217
2086.6	0.00898847
2096.24	0.00968874
2105.89	0.0107529
2115.53	0.0111709
2125.17	0.00953631
2134.81	0.00764134
2144.45	0.00576732
2154.1	0.00689608
2163.74	0.0104048
2173.38	0.0107289
2183.02	0.0118724
2192.67	0.0108389
2202.31	0.0111561
2211.95	0.0115129
2221.59	0.0131514
2231.24	0.0126166
2240.88	0.0139267
2250.52	0.012904
2260.16	0.0136396
2269.8	0.0148387
2279.45	0.0157736
2289.09	0.016486
2298.73	0.016313
2308.38	0.016114
2318.02	0.0158966
2327.66	0.0152231
2337.3	0.0159009
2346.94	0.0148542
2356.59	0.0153719
2366.23	0.0149264
2375.87	0.0151279
2385.51	0.0151853
2395.16	0.0162641
2404.8	0.0152964
2414.44	0.0162452
2424.08	0.0165131
2433.72	0.0160033
2443.37	0.0170507
2453.01	0.0175712
2462.65	0.0161085
2472.29	0.016467
2481.94	0.0170718
2491.58	0.016727
2501.22	0.017324
2510.86	0.0174108
2520.51	0.0165053
2530.15	0.0168696
2539.79	0.0180321
2549.43	0.0187577
2559.07	0.0175725
2568.72	0.0183895
2578.36	0.0188889
2588	0.0191451
2597.64	0.0187802
2607.29	0.0182261
2616.93	0.0189931
2626.57	0.0189506
2636.21	0.0194006
2645.86	0.0189119
2655.5	0.0193457
2665.14	0.0182969
2674.78	0.0176229
2684.43	0.0180553
2694.07	0.0180018
2703.71	0.0184668
2713.35	0.0176513
2722.99	0.0184867
2732.64	0.0187304
2742.28	0.0187179
2751.92	0.0186874
2761.56	0.0189392
2771.21	0.0192876
2780.85	0.01871
2790.49	0.0194658
2800.13	0.0192234
2809.78	0.0196157
2819.42	0.0202157
2829.06	0.0197549
2838.7	0.0201398
2848.34	0.018815
2857.99	0.0190778
2867.63	0.0195411
2877.27	0.0196902
2886.91	0.0198318
2896.56	0.0196354
2906.2	0.0191583
2915.84	0.0189466
2925.48	0.0180054
2935.13	0.0185174
2944.77	0.0195618
2954.41	0.0196257
2964.05	0.0209355
2973.7	0.0199172
2983.34	0.0198515
2992.98	0.0197676
3002.62	0.0212645
3012.26	0.0210732
3021.91	0.0208062
3031.55	0.0210532
3041.19	0.021262
3050.83	0.0207654
3060.48	0.0222517
3070.12	0.0214862
3079.76	0.0221778
3089.4	0.0226128
3099.05	0.0216414
3108.69	0.0222958
3118.33	0.0226942
3127.97	0.0218721
3137.61	0.0233668
3147.26	0.0223102
3156.9	0.0219324
3166.54	0.0237615
3176.18	0.0235685
3185.83	0.0238555
3195.47	0.0227141
3205.11	0.0239899
3214.75	0.0239573
3224.4	0.0241156
3234.04	0.0237058
3243.68	0.0244273
3253.32	0.0243676
3262.97	0.0252212
3272.61	0.0252167
3282.25	0.0241079
3291.89	0.0244173
3301.53	0.0248701
3311.18	0.0230323
3320.82	0.0241499
3330.46	0.0228048
3340.1	0.0236747
3349.75	0.0238963
3359.39	0.0230166
3369.03	0.0231521
3378.67	0.0251998
3388.32	0.0252591
3397.96	0.0246906
3407.6	0.0256199
3417.24	0.0240852
3426.89	0.0239674
3436.53	0.024351
3446.17	0.0242569
3455.81	0.024334
3465.45	0.0237648
3475.1	0.0237253
3484.74	0.0236504
3494.38	0.0246679
3504.02	0.0238841
3513.67	0.0247089
3523.31	0.0245189
3532.95	0.0236729
3542.59	0.0249381
3552.24	0.0225853
3561.88	0.0253819
3571.52	0.0251588
3581.16	0.0249561
3590.8	0.0252546
3600.45	0.0260235
3610.09	0.0283118
3619.73	0.0447259
3629.37	0.022443
3639.02	0.0242619
3648.66	0.0228477
3658.3	0.0231662
3667.94	0.023004
3677.59	0.0224257
3687.23	0.0222742
3696.87	0.02317
3706.51	0.0230195
3716.16	0.0229357
3725.8	0.0242763
3735.44	0.0221887
3745.08	0.0226967
3754.72	0.0243536
3764.37	0.0223904
3774.01	0.0247226
3783.65	0.023136
3793.29	0.0239067
3802.94	0.0236959
3812.58	0.024587
3822.22	0.0233946
3831.86	0.0238025
3841.51	0.0226688
3851.15	0.0221072
3860.79	0.0228639
3870.43	0.023844
3880.07	0.0243863
3889.72	0.0234637
3899.36	0.0253949
3909	0.0251319
3918.64	0.023441
3928.29	0.0224953
3937.93	0.0258126
3947.57	0.023642
3957.21	0.0243762
3966.86	0.0256432
3976.5	0.0249869
3986.14	0.0238283
3995.78	0.0243755
