Measurement: Infrared, Infrared Data Processed
Mineral: Riebeckite
Rruff sample: R060028
Ideal chemistry: [box]Na_2_(Fe^2+^_3_Fe^3+^_2_)Si_8_O_22_(OH)_2_
Locality: Transvaal, South Africa
Source: University of Arizona Mineral Museum
Description: Black to blue fibrous, known as blue asbestos
Measured chemistry: ([box]_0.98_K_0.02_)(Na_0.98_Ca_0.02_)_2_(Fe^2+^_0.85_Mg_0.15_)_3_(Fe^3+^_0.99_[box]_0.01_)_2_Si_8.00_O_22_(OH)_2_
x	intensity
399.193	0.148772
408.835	0.157915
418.477	0.161674
428.12	0.217446
437.762	0.268632
447.404	0.264966
457.047	0.192474
466.689	0.151517
476.331	0.125675
485.974	0.124416
495.616	0.130861
505.258	0.121534
514.901	0.113428
524.543	0.0952429
534.185	0.121619
543.828	0.135346
553.47	0.115408
563.112	0.096044
572.755	0.0978184
582.397	0.109435
592.039	0.125077
601.682	0.142671
611.324	0.155494
620.966	0.160316
630.609	0.164746
640.251	0.157168
649.893	0.160156
659.536	0.157856
669.178	0.149574
678.82	0.147723
688.463	0.151841
698.105	0.13328
707.747	0.117062
717.39	0.11314
727.032	0.111003
736.674	0.102601
746.317	0.101272
755.959	0.10293
765.601	0.109496
775.244	0.141039
784.886	0.106103
794.528	0.089076
804.171	0.0866733
813.813	0.0860454
823.455	0.0841015
833.098	0.0802192
842.74	0.0739631
852.382	0.069747
862.025	0.0705783
871.667	0.0810034
881.309	0.0894054
890.952	0.0926379
900.594	0.0918002
910.236	0.101345
919.879	0.137058
929.521	0.185317
939.163	0.234259
948.806	0.283728
958.448	0.329774
968.09	0.366797
977.733	0.366461
987.375	0.390877
997.017	0.280274
1006.66	0.198155
1016.3	0.164134
1025.94	0.143601
1035.59	0.128096
1045.23	0.111737
1054.87	0.0856098
1064.51	0.0690135
1074.16	0.0695201
1083.8	0.0846636
1093.44	0.109511
1103.08	0.128145
1112.72	0.127283
1122.37	0.103359
1132.01	0.0650986
1141.65	0.0962545
1151.3	0.0745993
1160.94	0.0459835
1170.58	0.0273018
1180.22	0.0251194
1189.86	0.0245707
1199.51	0.0194657
1209.15	0.0170342
1218.79	0.0197496
1228.43	0.0188888
1238.08	0.0172916
1247.72	0.0155565
1257.36	0.0132431
1267	0.0101098
1276.64	0.00835701
1286.29	0.00831054
1295.93	0.00802255
1305.57	0.00762721
1315.21	0.00770874
1324.86	0.00722514
1334.5	0.00684241
1344.14	0.00674852
1353.78	0.00694362
1363.43	0.00890243
1373.07	0.00876253
1382.71	0.00867907
1392.35	0.00807634
1401.99	0.0083736
1411.64	0.00892513
1421.28	0.00822344
1430.92	0.00837561
1440.57	0.00898515
1450.21	0.00989329
1459.85	0.0106744
1469.49	0.00937782
1479.13	0.00652725
1488.78	0.00656526
1498.42	0.00961087
1508.06	0.0100503
1517.7	0.0064912
1527.35	0.00625512
1536.99	0.00697531
1546.63	0.00718006
1556.27	0.00754552
1565.91	0.00753252
1575.56	0.00819185
1585.2	0.00812364
1594.84	0.00850852
1604.48	0.00895087
1614.13	0.00948626
1623.77	0.0101198
1633.41	0.0110884
1643.05	0.0113212
1652.7	0.0115189
1662.34	0.00961223
1671.98	0.00850626
1681.62	0.00752509
1691.27	0.00701828
1700.91	0.00770474
1710.55	0.00777149
1720.19	0.00996514
1729.84	0.0149088
1739.48	0.0144636
1749.12	0.00781742
1758.76	0.00759247
1768.4	0.0103957
1778.05	0.00911681
1787.69	0.00617728
1797.33	0.00353487
1806.97	0.00262912
1816.62	0.00184399
1826.26	0.00164862
1835.9	0.00162463
1845.54	0.00142982
1855.18	0.0006368
1864.83	0.000983896
1874.47	0.000279044
1884.11	-0.000379266
1893.75	-0.000384223
1903.4	-0.00109257
1913.04	-0.00134687
1922.68	-0.00159799
1932.32	-0.00159883
1941.97	-0.00293407
1951.61	-0.00259963
1961.25	-0.00286366
1970.89	-0.00407954
1980.54	-0.00280184
1990.18	-0.00264043
1999.82	-0.00295446
2009.46	-0.0014713
2019.11	-0.00203555
2028.75	-0.00121028
2038.39	-0.000985551
2048.03	-0.000519375
2057.67	-0.000767037
2067.32	-0.000278938
2076.96	6.31753e-05
2086.6	0.000200978
2096.24	-0.000112184
2105.89	0.000766213
2115.53	0.000415025
2125.17	0.000851102
2134.81	-0.000555711
2144.45	-0.000132536
2154.1	-0.000245473
2163.74	0.00221773
2173.38	-3.7183e-06
2183.02	0.00127743
2192.67	-0.0022226
2202.31	0.000303498
2211.95	-0.000272157
2221.59	-0.000413478
2231.24	-0.00118939
2240.88	0.000114813
2250.52	0.000576285
2260.16	0.0016714
2269.8	0.00147464
2279.45	0.0013656
2289.09	0.00113339
2298.73	0.000824739
2308.38	0.00114346
2318.02	0.00185263
2327.66	0.00146236
2337.3	0.00124723
2346.94	0.00126705
2356.59	0.00128268
2366.23	0.00123636
2375.87	0.0011415
2385.51	0.0012544
2395.16	0.00105325
2404.8	0.000636229
2414.44	0.00147726
2424.08	0.00139523
2433.72	0.00130253
2443.37	0.00112285
2453.01	0.00143196
2462.65	0.0015275
2472.29	0.00131933
2481.94	0.000840981
2491.58	0.00119894
2501.22	0.00194805
2510.86	0.00134296
2520.51	0.0017879
2530.15	0.00160107
2539.79	0.00130111
2549.43	0.00165178
2559.07	0.00159345
2568.72	0.00143392
2578.36	0.00186679
2588	0.00217285
2597.64	0.00251365
2607.29	0.00279857
2616.93	0.00258546
2626.57	0.00264677
2636.21	0.0030843
2645.86	0.00305206
2655.5	0.00324464
2665.14	0.00312519
2674.78	0.00280392
2684.43	0.00297656
2694.07	0.00268776
2703.71	0.00308721
2713.35	0.00285423
2722.99	0.00353906
2732.64	0.00349293
2742.28	0.00337441
2751.92	0.00328113
2761.56	0.00335631
2771.21	0.00362515
2780.85	0.0037872
2790.49	0.00447185
2800.13	0.00454756
2809.78	0.00504316
2819.42	0.00534841
2829.06	0.00621272
2838.7	0.00836593
2848.34	0.012167
2857.99	0.0113641
2867.63	0.0120444
2877.27	0.0118942
2886.91	0.0113318
2896.56	0.0131017
2906.2	0.016128
2915.84	0.0218125
2925.48	0.0217438
2935.13	0.0179157
2944.77	0.0162569
2954.41	0.018815
2964.05	0.0180177
2973.7	0.0119597
2983.34	0.00835851
2992.98	0.00721905
3002.62	0.00612938
3012.26	0.00587258
3021.91	0.00580233
3031.55	0.006622
3041.19	0.00639806
3050.83	0.00658725
3060.48	0.00686843
3070.12	0.00686366
3079.76	0.00706325
3089.4	0.00740363
3099.05	0.00762827
3108.69	0.0078028
3118.33	0.00818191
3127.97	0.00829644
3137.61	0.00942508
3147.26	0.00869285
3156.9	0.00980149
3166.54	0.00977592
3176.18	0.0104339
3185.83	0.0104932
3195.47	0.0109479
3205.11	0.0102504
3214.75	0.011644
3224.4	0.0118621
3234.04	0.0118028
3243.68	0.0116637
3253.32	0.0123679
3262.97	0.0118403
3272.61	0.01304
3282.25	0.0132542
3291.89	0.0132792
3301.53	0.0134121
3311.18	0.0131753
3320.82	0.0136758
3330.46	0.0138155
3340.1	0.0138758
3349.75	0.0137869
3359.39	0.0141621
3369.03	0.0141353
3378.67	0.0136297
3388.32	0.0140224
3397.96	0.0135964
3407.6	0.0138292
3417.24	0.013129
3426.89	0.0131899
3436.53	0.0127636
3446.17	0.0119092
3455.81	0.0125793
3465.45	0.011846
3475.1	0.0124114
3484.74	0.0112633
3494.38	0.0112734
3504.02	0.0113667
3513.67	0.0109283
3523.31	0.0106577
3532.95	0.0101866
3542.59	0.0110942
3552.24	0.00989949
3561.88	0.0102073
3571.52	0.00848276
3581.16	0.00949674
3590.8	0.00804612
3600.45	0.00814079
3610.09	0.00735267
3619.73	0.0454358
3629.37	0.00670145
3639.02	0.0112999
3648.66	0.00573729
3658.3	0.00155764
3667.94	0.00176337
3677.59	0.00255177
3687.23	0.00256425
3696.87	0.00149123
3706.51	0.00103696
3716.16	0.000558894
3725.8	0.000639684
3735.44	0.00253268
3745.08	0.00208892
3754.72	0.000955329
3764.37	0.000897432
3774.01	0.000583395
3783.65	0.000700464
3793.29	0.000492119
3802.94	0.00146907
3812.58	0.00139236
3822.22	0.00201555
3831.86	0.00151859
3841.51	0.00141832
3851.15	0.00145435
3860.79	0.000835113
3870.43	0.0021023
3880.07	0.00236144
3889.72	0.0017774
3899.36	0.000430689
3909	0.00086809
3918.64	0.00125736
3928.29	0.000979473
3937.93	0.000772709
3947.57	0.00119783
3957.21	0.00012685
3966.86	0.00171263
3976.5	0.00156052
3986.14	0.00224171
3995.78	0.00085944
