Measurement: Infrared, Infrared Data Processed
Mineral: Rutile
Rruff sample: R050417
Ideal chemistry: Ti^4+^O_2_
Locality: Champion mine, Mono County, California, USA
Source: Marcus Origlieri
Description: Reddish black equant crystals
Measured chemistry: TiO_2_
x	intensity
399.193	0.254275
408.835	0.252221
418.477	0.228675
428.12	0.22988
437.762	0.227972
447.404	0.250529
457.047	0.28137
466.689	0.301189
476.331	0.317256
485.974	0.328352
495.616	0.33249
505.258	0.323755
514.901	0.30826
524.543	0.297451
534.185	0.286218
543.828	0.276754
553.47	0.269139
563.112	0.266209
572.755	0.259881
582.397	0.255849
592.039	0.247803
601.682	0.242037
611.324	0.233943
620.966	0.224816
630.609	0.216229
640.251	0.206954
649.893	0.198652
659.536	0.190492
669.178	0.182676
678.82	0.174594
688.463	0.166973
698.105	0.159164
707.747	0.151417
717.39	0.142662
727.032	0.134166
736.674	0.125263
746.317	0.11611
755.959	0.10676
765.601	0.0980398
775.244	0.0892925
784.886	0.081302
794.528	0.0738482
804.171	0.0674564
813.813	0.0608764
823.455	0.0557035
833.098	0.051256
842.74	0.0470726
852.382	0.0437167
862.025	0.0415438
871.667	0.0400263
881.309	0.0385402
890.952	0.0369851
900.594	0.0355566
910.236	0.0342429
919.879	0.0333013
929.521	0.0323503
939.163	0.0320592
948.806	0.0321358
958.448	0.030747
968.09	0.0298958
977.733	0.0298301
987.375	0.0300741
997.017	0.0303321
1006.66	0.0309736
1016.3	0.0321643
1025.94	0.0334667
1035.59	0.035729
1045.23	0.0368477
1054.87	0.0405337
1064.51	0.0392264
1074.16	0.0393794
1083.8	0.034786
1093.44	0.0319375
1103.08	0.0313268
1112.72	0.0319265
1122.37	0.0340383
1132.01	0.0333295
1141.65	0.0328297
1151.3	0.0331904
1160.94	0.033574
1170.58	0.0341948
1180.22	0.0349045
1189.86	0.0358997
1199.51	0.0367131
1209.15	0.0377766
1218.79	0.0390597
1228.43	0.0406627
1238.08	0.0422161
1247.72	0.044005
1257.36	0.0459128
1267	0.0479447
1276.64	0.0507579
1286.29	0.0518412
1295.93	0.0530552
1305.57	0.055403
1315.21	0.0576347
1324.86	0.0592987
1334.5	0.0620891
1344.14	0.0644294
1353.78	0.0668809
1363.43	0.069582
1373.07	0.071968
1382.71	0.0747112
1392.35	0.0778172
1401.99	0.0809694
1411.64	0.0837151
1421.28	0.085447
1430.92	0.0888469
1440.57	0.0907892
1450.21	0.0937177
1459.85	0.0950698
1469.49	0.0967522
1479.13	0.0981606
1488.78	0.0995051
1498.42	0.101096
1508.06	0.103483
1517.7	0.105235
1527.35	0.107269
1536.99	0.109813
1546.63	0.111875
1556.27	0.114495
1565.91	0.116516
1575.56	0.118079
1585.2	0.119922
1594.84	0.122186
1604.48	0.124344
1614.13	0.126231
1623.77	0.127774
1633.41	0.129688
1643.05	0.131524
1652.7	0.133029
1662.34	0.134515
1671.98	0.136077
1681.62	0.136543
1691.27	0.13855
1700.91	0.139751
1710.55	0.141177
1720.19	0.142799
1729.84	0.144177
1739.48	0.143513
1749.12	0.144292
1758.76	0.148118
1768.4	0.150229
1778.05	0.152329
1787.69	0.155241
1797.33	0.155756
1806.97	0.158032
1816.62	0.158808
1826.26	0.161381
1835.9	0.162856
1845.54	0.164807
1855.18	0.164334
1864.83	0.168137
1874.47	0.1694
1884.11	0.170478
1893.75	0.171441
1903.4	0.173753
1913.04	0.176049
1922.68	0.176737
1932.32	0.177813
1941.97	0.179063
1951.61	0.179796
1961.25	0.180718
1970.89	0.183917
1980.54	0.18673
1990.18	0.186758
1999.82	0.185087
2009.46	0.189745
2019.11	0.190646
2028.75	0.188081
2038.39	0.195191
2048.03	0.194451
2057.67	0.195654
2067.32	0.197051
2076.96	0.199623
2086.6	0.198864
2096.24	0.200721
2105.89	0.201774
2115.53	0.202958
2125.17	0.203405
2134.81	0.203849
2144.45	0.206014
2154.1	0.20224
2163.74	0.207188
2173.38	0.209448
2183.02	0.213728
2192.67	0.212355
2202.31	0.214391
2211.95	0.212581
2221.59	0.216686
2231.24	0.21566
2240.88	0.216517
2250.52	0.21942
2260.16	0.221781
2269.8	0.222139
2279.45	0.222683
2289.09	0.225161
2298.73	0.222979
2308.38	0.225579
2318.02	0.226379
2327.66	0.225928
2337.3	0.227359
2346.94	0.226537
2356.59	0.230747
2366.23	0.229921
2375.87	0.230654
2385.51	0.231128
2395.16	0.233005
2404.8	0.233214
2414.44	0.234591
2424.08	0.236123
2433.72	0.236793
2443.37	0.237406
2453.01	0.240566
2462.65	0.24015
2472.29	0.241808
2481.94	0.239838
2491.58	0.242007
2501.22	0.243509
2510.86	0.244596
2520.51	0.24437
2530.15	0.246827
2539.79	0.245877
2549.43	0.247829
2559.07	0.24917
2568.72	0.248908
2578.36	0.250559
2588	0.25127
2597.64	0.253234
2607.29	0.251517
2616.93	0.253632
2626.57	0.254162
2636.21	0.255772
2645.86	0.257485
2655.5	0.257088
2665.14	0.258603
2674.78	0.256695
2684.43	0.256563
2694.07	0.259244
2703.71	0.260223
2713.35	0.261137
2722.99	0.261499
2732.64	0.262803
2742.28	0.264491
2751.92	0.264889
2761.56	0.266094
2771.21	0.26591
2780.85	0.267215
2790.49	0.267153
2800.13	0.270181
2809.78	0.270655
2819.42	0.270708
2829.06	0.273
2838.7	0.271291
2848.34	0.269129
2857.99	0.268767
2867.63	0.272551
2877.27	0.273719
2886.91	0.274743
2896.56	0.274548
2906.2	0.274272
2915.84	0.272216
2925.48	0.269662
2935.13	0.271091
2944.77	0.274457
2954.41	0.277664
2964.05	0.276333
2973.7	0.27716
2983.34	0.278918
2992.98	0.280644
3002.62	0.282808
3012.26	0.282703
3021.91	0.283523
3031.55	0.288229
3041.19	0.285233
3050.83	0.287342
3060.48	0.288021
3070.12	0.290897
3079.76	0.291253
3089.4	0.291914
3099.05	0.291012
3108.69	0.29189
3118.33	0.294512
3127.97	0.295158
3137.61	0.296553
3147.26	0.295224
3156.9	0.296888
3166.54	0.296831
3176.18	0.298061
3185.83	0.299924
3195.47	0.298333
3205.11	0.299608
3214.75	0.300614
3224.4	0.303221
3234.04	0.302101
3243.68	0.30271
3253.32	0.30298
3262.97	0.303414
3272.61	0.307458
3282.25	0.304263
3291.89	0.307154
3301.53	0.304222
3311.18	0.306458
3320.82	0.306165
3330.46	0.305819
3340.1	0.305617
3349.75	0.306311
3359.39	0.306261
3369.03	0.310662
3378.67	0.309356
3388.32	0.309158
3397.96	0.310124
3407.6	0.307824
3417.24	0.309812
3426.89	0.309481
3436.53	0.308944
3446.17	0.307921
3455.81	0.309266
3465.45	0.308965
3475.1	0.308166
3484.74	0.308043
3494.38	0.310909
3504.02	0.308254
3513.67	0.309017
3523.31	0.309137
3532.95	0.312149
3542.59	0.310994
3552.24	0.311294
3561.88	0.307899
3571.52	0.309565
3581.16	0.306693
3590.8	0.313747
3600.45	0.311293
3610.09	0.313702
3619.73	0.309968
3629.37	0.312436
3639.02	0.314223
3648.66	0.311093
3658.3	0.306763
3667.94	0.316843
3677.59	0.313205
3687.23	0.312249
3696.87	0.317473
3706.51	0.313804
3716.16	0.310477
3725.8	0.316727
3735.44	0.319921
3745.08	0.313661
3754.72	0.314711
3764.37	0.322257
3774.01	0.318699
3783.65	0.3222
3793.29	0.318584
3802.94	0.32185
3812.58	0.321957
3822.22	0.321082
3831.86	0.325062
3841.51	0.322202
3851.15	0.324812
3860.79	0.325951
3870.43	0.328398
3880.07	0.322698
3889.72	0.329287
3899.36	0.330451
3909	0.325977
3918.64	0.329176
3928.29	0.332499
3937.93	0.330286
3947.57	0.330268
3957.21	0.330525
3966.86	0.330302
3976.5	0.33416
3986.14	0.334041
3995.78	0.33961
