Measurement: Infrared, Infrared Data Processed
Mineral: Scolecite
Rruff sample: R040111
Ideal chemistry: Ca(Si_3_Al_2_)O_10_3H_2_O
Locality: Bombay-Poona area, Mahahashtra Province, India
Source: National Museums of Canada
Description: Pale pink prismatic crystals in parallel or near parallel aggregates
Measured chemistry: Ca_0.98_(Si_3.05_Al_1.95_)O_10_Â·3H_2_O
x	intensity
399.193	0
408.835	0.189275
418.477	0.199855
428.12	0.19279
437.762	0.142866
447.404	0.118806
457.047	0.103515
466.689	0.100923
476.331	0.120963
485.974	0.140211
495.616	0.135692
505.258	0.120341
514.901	0.107796
524.543	0.0985618
534.185	0.0887199
543.828	0.0814832
553.47	0.0821073
563.112	0.093438
572.755	0.104388
582.397	0.111826
592.039	0.122242
601.682	0.126953
611.324	0.125396
620.966	0.13771
630.609	0.134469
640.251	0.109825
649.893	0.0894604
659.536	0.088492
669.178	0.0993122
678.82	0.0974254
688.463	0.112708
698.105	0.0901764
707.747	0.0788533
717.39	0.0925432
727.032	0.0750123
736.674	0.0431643
746.317	0.0270484
755.959	0.0241047
765.601	0.0230081
775.244	0.0214898
784.886	0.0213572
794.528	0.0212871
804.171	0.02142
813.813	0.0227123
823.455	0.024748
833.098	0.0277805
842.74	0.031857
852.382	0.0376603
862.025	0.0445243
871.667	0.0544701
881.309	0.0693583
890.952	0.0911455
900.594	0.121808
910.236	0.173485
919.879	0.253366
929.521	0.308446
939.163	0.23721
948.806	0.278598
958.448	0.25704
968.09	0.231173
977.733	0.298368
987.375	0.337602
997.017	0.222547
1006.66	0.243587
1016.3	0.254458
1025.94	0.21459
1035.59	0.174279
1045.23	0.149301
1054.87	0.117107
1064.51	0.109067
1074.16	0.092035
1083.8	0.0801047
1093.44	0.112916
1103.08	0.123285
1112.72	0.0935499
1122.37	0.058312
1132.01	0.0380408
1141.65	0.0271965
1151.3	0.0216924
1160.94	0.0185132
1170.58	0.0163349
1180.22	0.0139517
1189.86	0.0123743
1199.51	0.0105248
1209.15	0.00922708
1218.79	0.00799411
1228.43	0.00694486
1238.08	0.00641668
1247.72	0.00559916
1257.36	0.00520425
1267	0.00490966
1276.64	0.00476154
1286.29	0.00434408
1295.93	0.00443805
1305.57	0.00411174
1315.21	0.00423003
1324.86	0.00374917
1334.5	0.00377313
1344.14	0.00415949
1353.78	0.00414643
1363.43	0.00427532
1373.07	0.00402201
1382.71	0.00406997
1392.35	0.00414607
1401.99	0.00451284
1411.64	0.00470564
1421.28	0.00487621
1430.92	0.0055624
1440.57	0.005714
1450.21	0.00667652
1459.85	0.00700876
1469.49	0.00703321
1479.13	0.00684638
1488.78	0.00652157
1498.42	0.00625932
1508.06	0.00654175
1517.7	0.00626776
1527.35	0.0064238
1536.99	0.00656707
1546.63	0.00786078
1556.27	0.00788751
1565.91	0.0106959
1575.56	0.0119399
1585.2	0.0161382
1594.84	0.0146802
1604.48	0.0121147
1614.13	0.0108825
1623.77	0.0118923
1633.41	0.0156745
1643.05	0.0345653
1652.7	0.0333457
1662.34	0.046835
1671.98	0.0210131
1681.62	0.00869945
1691.27	0.00663446
1700.91	0.00572303
1710.55	0.00484848
1720.19	0.0046258
1729.84	0.00388166
1739.48	0.00373962
1749.12	0.00371828
1758.76	0.00387507
1768.4	0.00340357
1778.05	0.00341439
1787.69	0.00301316
1797.33	0.00322617
1806.97	0.00276228
1816.62	0.00228246
1826.26	0.0028113
1835.9	0.00186232
1845.54	0.00205628
1855.18	0.00154087
1864.83	0.0018872
1874.47	0.00164007
1884.11	0.00175582
1893.75	0.000757498
1903.4	0.000120485
1913.04	0.000829763
1922.68	-9.69734e-05
1932.32	-0.000396431
1941.97	-0.000600019
1951.61	-0.00188608
1961.25	-0.00301307
1970.89	-0.00703672
1980.54	-0.00251662
1990.18	-0.000846361
1999.82	-0.00179986
2009.46	-0.00561587
2019.11	-0.00485929
2028.75	-0.0058129
2038.39	-0.00317187
2048.03	-0.00226056
2057.67	0.000569103
2067.32	0.00122297
2076.96	0.000926941
2086.6	0.0018061
2096.24	0.000184582
2105.89	0.00239965
2115.53	0.00290397
2125.17	0.00103737
2134.81	-0.00115109
2144.45	-0.00124745
2154.1	-0.00292291
2163.74	0.00240028
2173.38	0.00182869
2183.02	0.00126671
2192.67	0.00139216
2202.31	0.00324391
2211.95	0.00248703
2221.59	0.0034905
2231.24	0.00421824
2240.88	0.00474847
2250.52	0.00563554
2260.16	0.00661526
2269.8	0.00679384
2279.45	0.00878045
2289.09	0.00811612
2298.73	0.00791222
2308.38	0.00802772
2318.02	0.00781965
2327.66	0.00741274
2337.3	0.00641737
2346.94	0.00717251
2356.59	0.00654274
2366.23	0.00617689
2375.87	0.00584349
2385.51	0.00635741
2395.16	0.00583993
2404.8	0.00657317
2414.44	0.0070897
2424.08	0.00645998
2433.72	0.00599922
2443.37	0.0067813
2453.01	0.00812155
2462.65	0.0065895
2472.29	0.00659668
2481.94	0.00696314
2491.58	0.00706864
2501.22	0.00693927
2510.86	0.00723954
2520.51	0.00621593
2530.15	0.00741256
2539.79	0.00726918
2549.43	0.00783876
2559.07	0.00896366
2568.72	0.00788445
2578.36	0.00864399
2588	0.00828605
2597.64	0.00897395
2607.29	0.00807614
2616.93	0.00824942
2626.57	0.00840704
2636.21	0.00819894
2645.86	0.00902065
2655.5	0.00955514
2665.14	0.00902883
2674.78	0.00822245
2684.43	0.00857857
2694.07	0.00852299
2703.71	0.00808867
2713.35	0.00818977
2722.99	0.00876568
2732.64	0.00920601
2742.28	0.00988299
2751.92	0.00905774
2761.56	0.00974465
2771.21	0.00952895
2780.85	0.0109549
2790.49	0.0108925
2800.13	0.0108457
2809.78	0.010685
2819.42	0.0106844
2829.06	0.011703
2838.7	0.0112728
2848.34	0.0119502
2857.99	0.0126063
2867.63	0.0125566
2877.27	0.0120869
2886.91	0.0133421
2896.56	0.012027
2906.2	0.0139733
2915.84	0.0137779
2925.48	0.0136428
2935.13	0.0142596
2944.77	0.0146312
2954.41	0.0151437
2964.05	0.0153038
2973.7	0.0156992
2983.34	0.0160388
2992.98	0.0176271
3002.62	0.0177877
3012.26	0.0191971
3021.91	0.0190621
3031.55	0.0191416
3041.19	0.0211418
3050.83	0.0210078
3060.48	0.0226941
3070.12	0.0212042
3079.76	0.0232601
3089.4	0.0244701
3099.05	0.0244302
3108.69	0.0260115
3118.33	0.0278286
3127.97	0.0287324
3137.61	0.0291518
3147.26	0.0318754
3156.9	0.0320786
3166.54	0.0340569
3176.18	0.0364409
3185.83	0.0407125
3195.47	0.0461093
3205.11	0.0546769
3214.75	0.0656528
3224.4	0.0764706
3234.04	0.0754781
3243.68	0.059623
3253.32	0.0462695
3262.97	0.0410178
3272.61	0.0393971
3282.25	0.0378072
3291.89	0.0378293
3301.53	0.0436625
3311.18	0.0505616
3320.82	0.0522377
3330.46	0.0502745
3340.1	0.048775
3349.75	0.0475382
3359.39	0.0451566
3369.03	0.048441
3378.67	0.0501911
3388.32	0.0573258
3397.96	0.0685664
3407.6	0.0701872
3417.24	0.0627448
3426.89	0.0545768
3436.53	0.0482927
3446.17	0.0454272
3455.81	0.0408881
3465.45	0.0410268
3475.1	0.0438809
3484.74	0.0498467
3494.38	0.0627092
3504.02	0.0688493
3513.67	0.0601782
3523.31	0.0480367
3532.95	0.0432223
3542.59	0.0366057
3552.24	0.0378481
3561.88	0.0415061
3571.52	0.0490369
3581.16	0.0548329
3590.8	0.0461082
3600.45	0.0342805
3610.09	0.0260314
3619.73	0.0215102
3629.37	0.0181597
3639.02	0.0161382
3648.66	0.0129409
3658.3	0.0117644
3667.94	0.0104835
3677.59	0.012643
3687.23	0.00934711
3696.87	0.0121824
3706.51	0.0117485
3716.16	0.0127922
3725.8	0.01101
3735.44	0.00958081
3745.08	0.0128542
3754.72	0.0127622
3764.37	0.0128128
3774.01	0.0131602
3783.65	0.0137079
3793.29	0.0118768
3802.94	0.0118909
3812.58	0.0130397
3822.22	0.0139816
3831.86	0.0129168
3841.51	0.0134138
3851.15	0.0114002
3860.79	0.0119828
3870.43	0.0129974
3880.07	0.013613
3889.72	0.0148744
3899.36	0.0153904
3909	0.0144821
3918.64	0.0166966
3928.29	0.015466
3937.93	0.0159817
3947.57	0.0152443
3957.21	0.0157243
3966.86	0.0149977
3976.5	0.0155837
3986.14	0.0149112
3995.78	0.0173105
