Measurement: Infrared, Infrared Data Processed
Mineral: Shattuckite
Rruff sample: R050133
Ideal chemistry: Cu^2+^_5_(SiO_3_)_4_(OH)_2_
Locality: Ajo, Pima County, Arizona, USA
Source: University of Arizona Mineral Museum
Description: Aggregate of blue flattened grains
Measured chemistry: Cu_5.00_(Si_0.99_Al_0.01_O_3_)_4_((OH)_0.97_(H_2_O)_0.03_)_2_
x	intensity
399.193	0.259024
408.835	0.264216
418.477	0.203729
428.12	0.226913
437.762	0.230776
447.404	0.196488
457.047	0.206086
466.689	0.231969
476.331	0.236597
485.974	0.21063
495.616	0.1936
505.258	0.226768
514.901	0.25987
524.543	0.27698
534.185	0.264761
543.828	0.233167
553.47	0.19095
563.112	0.14414
572.755	0.111104
582.397	0.0928243
592.039	0.0719202
601.682	0.05695
611.324	0.0530625
620.966	0.0606506
630.609	0.0613577
640.251	0.0652657
649.893	0.0854032
659.536	0.0851561
669.178	0.051723
678.82	0.0391079
688.463	0.0378286
698.105	0.0391236
707.747	0.0407003
717.39	0.0448187
727.032	0.0496089
736.674	0.0550443
746.317	0.0641272
755.959	0.0711857
765.601	0.0695759
775.244	0.0634976
784.886	0.0661094
794.528	0.0750489
804.171	0.085367
813.813	0.0961542
823.455	0.114177
833.098	0.126782
842.74	0.143661
852.382	0.187934
862.025	0.225327
871.667	0.191557
881.309	0.145554
890.952	0.16737
900.594	0.219895
910.236	0.237625
919.879	0.248695
929.521	0.240905
939.163	0.275551
948.806	0.327271
958.448	0.343702
968.09	0.336824
977.733	0.366617
987.375	0.417493
997.017	0.416192
1006.66	0.378254
1016.3	0.337925
1025.94	0.288948
1035.59	0.242667
1045.23	0.198825
1054.87	0.173607
1064.51	0.168227
1074.16	0.148284
1083.8	0.112996
1093.44	0.0916266
1103.08	0.0698216
1112.72	0.0494066
1122.37	0.0368004
1132.01	0.028846
1141.65	0.0228705
1151.3	0.0194665
1160.94	0.0164165
1170.58	0.0140744
1180.22	0.0121237
1189.86	0.0110414
1199.51	0.00984552
1209.15	0.00851895
1218.79	0.00759942
1228.43	0.00680083
1238.08	0.00640091
1247.72	0.00647022
1257.36	0.00647492
1267	0.00646499
1276.64	0.00682494
1286.29	0.00718925
1295.93	0.00743306
1305.57	0.00712333
1315.21	0.00689508
1324.86	0.00713873
1334.5	0.00737228
1344.14	0.00759075
1353.78	0.00773078
1363.43	0.00769927
1373.07	0.00766973
1382.71	0.00753032
1392.35	0.00756091
1401.99	0.00771606
1411.64	0.00801218
1421.28	0.00799984
1430.92	0.00813209
1440.57	0.00791428
1450.21	0.00779451
1459.85	0.00787366
1469.49	0.00718634
1479.13	0.00682889
1488.78	0.00716922
1498.42	0.00716035
1508.06	0.00742893
1517.7	0.00723929
1527.35	0.00744405
1536.99	0.0078286
1546.63	0.00799687
1556.27	0.00859021
1565.91	0.00864297
1575.56	0.00899234
1585.2	0.00895518
1594.84	0.00925036
1604.48	0.00938751
1614.13	0.00992425
1623.77	0.0102108
1633.41	0.0106733
1643.05	0.0102784
1652.7	0.0107003
1662.34	0.00983362
1671.98	0.00928312
1681.62	0.00930406
1691.27	0.00917148
1700.91	0.0102233
1710.55	0.0098547
1720.19	0.00966112
1729.84	0.00889013
1739.48	0.00837358
1749.12	0.00841847
1758.76	0.0091454
1768.4	0.00939499
1778.05	0.00974012
1787.69	0.010668
1797.33	0.0110387
1806.97	0.0109479
1816.62	0.0102694
1826.26	0.0100922
1835.9	0.0103542
1845.54	0.0102268
1855.18	0.0103118
1864.83	0.00997561
1874.47	0.00935855
1884.11	0.00914031
1893.75	0.00907092
1903.4	0.0089106
1913.04	0.0089796
1922.68	0.00868337
1932.32	0.00844418
1941.97	0.0077945
1951.61	0.00691064
1961.25	0.00590255
1970.89	0.00469144
1980.54	0.00707213
1990.18	0.00566196
1999.82	0.00504169
2009.46	0.00614754
2019.11	0.00363527
2028.75	0.0037104
2038.39	0.00577626
2048.03	0.00630361
2057.67	0.00554221
2067.32	0.0049092
2076.96	0.00674273
2086.6	0.00410375
2096.24	0.0053763
2105.89	0.00571619
2115.53	0.00502892
2125.17	0.00459733
2134.81	0.00412813
2144.45	0.00638897
2154.1	0.00549874
2163.74	0.00956105
2173.38	0.00966666
2183.02	0.00885008
2192.67	0.00977402
2202.31	0.00982429
2211.95	0.0107486
2221.59	0.00878569
2231.24	0.00977673
2240.88	0.0104033
2250.52	0.00987689
2260.16	0.0112448
2269.8	0.0112128
2279.45	0.010155
2289.09	0.0109756
2298.73	0.010298
2308.38	0.0105216
2318.02	0.0105096
2327.66	0.010203
2337.3	0.0106583
2346.94	0.0100718
2356.59	0.0105705
2366.23	0.0107633
2375.87	0.0101175
2385.51	0.00988205
2395.16	0.0103531
2404.8	0.0102873
2414.44	0.0110945
2424.08	0.0107156
2433.72	0.0110999
2443.37	0.0112939
2453.01	0.0112525
2462.65	0.0109723
2472.29	0.0109949
2481.94	0.0120129
2491.58	0.0117909
2501.22	0.0117424
2510.86	0.0119866
2520.51	0.0119708
2530.15	0.0120701
2539.79	0.0120858
2549.43	0.0124608
2559.07	0.0118771
2568.72	0.0130687
2578.36	0.012737
2588	0.013221
2597.64	0.0135352
2607.29	0.0128635
2616.93	0.0124324
2626.57	0.0132037
2636.21	0.0129813
2645.86	0.0132521
2655.5	0.0128806
2665.14	0.0131848
2674.78	0.0130068
2684.43	0.0132598
2694.07	0.0134337
2703.71	0.0135682
2713.35	0.0133378
2722.99	0.0140734
2732.64	0.0139861
2742.28	0.0146925
2751.92	0.0149521
2761.56	0.0153147
2771.21	0.0154703
2780.85	0.0154047
2790.49	0.0157562
2800.13	0.0157952
2809.78	0.0165401
2819.42	0.0169582
2829.06	0.0171588
2838.7	0.017664
2848.34	0.0184954
2857.99	0.0188701
2867.63	0.0184891
2877.27	0.0181912
2886.91	0.0189708
2896.56	0.0194189
2906.2	0.0206495
2915.84	0.021607
2925.48	0.0226609
2935.13	0.0219365
2944.77	0.0211064
2954.41	0.0218757
2964.05	0.0214405
2973.7	0.0212483
2983.34	0.0213003
2992.98	0.0223083
3002.62	0.0221732
3012.26	0.0230261
3021.91	0.0243902
3031.55	0.0245686
3041.19	0.0261696
3050.83	0.0265457
3060.48	0.0277381
3070.12	0.0288724
3079.76	0.0308549
3089.4	0.0321248
3099.05	0.0330333
3108.69	0.0343193
3118.33	0.0353948
3127.97	0.0373585
3137.61	0.0401396
3147.26	0.0415693
3156.9	0.0455927
3166.54	0.051783
3176.18	0.0601196
3185.83	0.0702566
3195.47	0.0816749
3205.11	0.0877645
3214.75	0.0911737
3224.4	0.0860399
3234.04	0.0658106
3243.68	0.0471673
3253.32	0.0379695
3262.97	0.0320187
3272.61	0.0295273
3282.25	0.0304974
3291.89	0.0301086
3301.53	0.0296368
3311.18	0.0280224
3320.82	0.025934
3330.46	0.0249032
3340.1	0.0241034
3349.75	0.0223432
3359.39	0.0218694
3369.03	0.0214401
3378.67	0.0209151
3388.32	0.0201489
3397.96	0.01803
3407.6	0.0191689
3417.24	0.0191447
3426.89	0.0189692
3436.53	0.0190877
3446.17	0.0185044
3455.81	0.0177705
3465.45	0.016917
3475.1	0.0181251
3484.74	0.017835
3494.38	0.0162513
3504.02	0.0159112
3513.67	0.0170145
3523.31	0.0185351
3532.95	0.0174084
3542.59	0.0166773
3552.24	0.0164817
3561.88	0.0171156
3571.52	0.0180707
3581.16	0.0184842
3590.8	0.0186962
3600.45	0.0240144
3610.09	0.0286314
3619.73	0.0344033
3629.37	0.0342557
3639.02	0.0291315
3648.66	0.0277802
3658.3	0.0228271
3667.94	0.0173322
3677.59	0.0137881
3687.23	0.0112193
3696.87	0.0108512
3706.51	0.0102539
3716.16	0.00968253
3725.8	0.0108961
3735.44	0.0115729
3745.08	0.012152
3754.72	0.0100937
3764.37	0.00932022
3774.01	0.0107316
3783.65	0.00954539
3793.29	0.011847
3802.94	0.0101086
3812.58	0.010821
3822.22	0.0127734
3831.86	0.0112026
3841.51	0.010331
3851.15	0.0123065
3860.79	0.0107041
3870.43	0.0115915
3880.07	0.0103353
3889.72	0.010634
3899.36	0.0117447
3909	0.0113503
3918.64	0.011984
3928.29	0.0120397
3937.93	0.0112661
3947.57	0.00933244
3957.21	0.0113105
3966.86	0.0113132
3976.5	0.01161
3986.14	0.0105956
3995.78	0.0106673
