Measurement: Infrared, Infrared Data Processed
Mineral: Shattuckite
Rruff sample: R050133
Ideal chemistry: Cu^2+^_5_(SiO_3_)_4_(OH)_2_
Locality: Ajo, Pima County, Arizona, USA
Source: University of Arizona Mineral Museum
Description: Aggregate of blue flattened grains
Measured chemistry: Cu_5.00_(Si_0.99_Al_0.01_O_3_)_4_((OH)_0.97_(H_2_O)_0.03_)_2_
x	intensity
50.1401	0.0166683
52.0686	0.0135826
53.9971	0.0148568
55.9255	0.0138773
57.854	0.0140489
59.7825	0.0187449
61.7109	0.0181553
63.6394	0.0200137
65.5679	0.0201126
67.4963	0.0229283
69.4248	0.0232867
71.3533	0.0259107
73.2817	0.027756
75.2102	0.0294551
77.1387	0.0276735
79.0671	0.0252178
80.9956	0.0229485
82.9241	0.0227005
84.8525	0.0235412
86.781	0.0246784
88.7095	0.0262426
90.6379	0.0292089
92.5664	0.031563
94.4948	0.0313214
96.4233	0.0300346
98.3518	0.0305283
100.28	0.0313899
102.209	0.0331231
104.137	0.0345479
106.066	0.0360408
107.994	0.0369687
109.923	0.0378544
111.851	0.0370073
113.779	0.0362058
115.708	0.0370181
117.636	0.0386491
119.565	0.0379572
121.493	0.0359384
123.422	0.0345887
125.35	0.0349245
127.279	0.0354433
129.207	0.0357509
131.136	0.0366612
133.064	0.0383344
134.993	0.0393955
136.921	0.0402815
138.85	0.0407846
140.778	0.0407462
142.707	0.039573
144.635	0.0394755
146.563	0.0406782
148.492	0.042538
150.42	0.0419995
152.349	0.0395006
154.277	0.0380977
156.206	0.0394539
158.134	0.0415053
160.063	0.0434448
161.991	0.0462627
163.92	0.0498362
165.848	0.0521368
167.777	0.0534069
169.705	0.0524668
171.633	0.0527667
173.562	0.0553761
175.49	0.0565283
177.419	0.0531976
179.347	0.0499723
181.276	0.0510376
183.204	0.0541219
185.133	0.0512215
187.061	0.0427441
188.99	0.0365376
190.918	0.0360061
192.847	0.0381169
194.775	0.0410894
196.704	0.0442598
198.632	0.0482507
200.56	0.0522443
202.489	0.0550197
204.417	0.0550565
206.346	0.0528236
208.274	0.0478549
210.203	0.0434416
212.131	0.0411998
214.06	0.0409168
215.988	0.0423506
217.917	0.0454485
219.845	0.0484332
221.774	0.0487555
223.702	0.0450624
225.631	0.0417757
227.559	0.041272
229.488	0.0424381
231.416	0.0437893
233.344	0.0452955
235.273	0.046915
237.201	0.0484538
239.13	0.0499341
241.058	0.0513717
242.987	0.0526631
244.915	0.0535898
246.844	0.05443
248.772	0.0560124
250.701	0.0580895
252.629	0.0600415
254.558	0.0622035
256.486	0.0643607
258.414	0.066228
260.343	0.0681837
262.271	0.0699441
264.2	0.0718467
266.128	0.0737869
268.057	0.0753189
269.985	0.0757318
271.914	0.0751616
273.842	0.0744435
275.771	0.0738912
277.699	0.0711198
279.628	0.065076
281.556	0.0585185
283.485	0.05452
285.413	0.0540625
287.341	0.0551264
289.27	0.0570785
291.198	0.059782
293.127	0.0620357
295.055	0.062618
296.984	0.0618988
298.912	0.0615605
300.841	0.061991
302.769	0.0632169
304.698	0.065238
306.626	0.0675434
308.555	0.0699492
310.483	0.0721748
312.411	0.0744627
314.34	0.0761481
316.269	0.0766983
318.197	0.0770923
320.125	0.0777142
322.054	0.0780111
323.982	0.0780529
325.911	0.0776233
327.839	0.0765943
329.768	0.0762328
331.696	0.0770548
333.625	0.0791167
335.553	0.0815705
337.482	0.0840255
339.41	0.0855588
341.339	0.08692
343.267	0.0887835
345.195	0.0912107
347.124	0.0927873
349.052	0.0925342
350.981	0.0910539
352.909	0.0890813
354.838	0.0868896
356.766	0.0854686
358.695	0.0854774
360.623	0.0869262
362.552	0.0893239
364.48	0.0917521
366.409	0.0931097
368.337	0.0921918
370.265	0.0890485
372.194	0.0862672
374.122	0.085379
376.051	0.0862276
377.979	0.0880019
379.908	0.0901427
381.836	0.0921649
383.765	0.0943493
385.693	0.0971166
387.622	0.100292
389.55	0.103433
391.479	0.107055
393.407	0.110568
395.336	0.114538
397.264	0.118401
399.192	0.121993
401.121	0.125184
403.049	0.127549
404.978	0.128918
406.906	0.128948
408.835	0.127437
410.763	0.12477
412.692	0.121043
414.62	0.117015
416.549	0.113288
418.477	0.110974
420.406	0.110231
422.334	0.111181
424.262	0.113063
426.191	0.115657
428.12	0.119119
430.048	0.123421
431.976	0.127363
433.905	0.129727
435.833	0.129205
437.762	0.125643
439.69	0.120832
441.619	0.11656
443.547	0.113759
445.476	0.113585
447.404	0.115697
449.333	0.118484
451.261	0.120505
453.19	0.121081
455.118	0.120816
457.046	0.120237
458.975	0.119363
460.903	0.119938
462.832	0.121968
464.76	0.124928
466.689	0.12794
468.617	0.131151
470.546	0.133694
472.474	0.135097
474.403	0.13454
476.331	0.133095
478.26	0.130917
480.188	0.128206
482.116	0.126055
484.045	0.124839
485.974	0.123242
487.902	0.121264
489.83	0.119143
491.759	0.117182
493.687	0.116036
495.616	0.116428
497.544	0.117988
499.473	0.119978
501.401	0.122257
503.33	0.124717
505.258	0.127457
507.187	0.130187
509.115	0.132497
511.043	0.135376
512.972	0.138297
514.9	0.14098
516.829	0.143524
518.757	0.146761
520.686	0.14965
522.614	0.150885
524.543	0.151652
526.471	0.152636
528.4	0.153107
530.328	0.152883
532.257	0.152041
534.185	0.151304
536.114	0.150302
538.042	0.148828
539.971	0.146317
541.899	0.143926
543.827	0.141645
545.756	0.139179
547.684	0.136662
549.613	0.133813
551.541	0.130638
553.47	0.127094
555.398	0.123803
557.327	0.120496
559.255	0.116406
561.184	0.111742
563.112	0.10727
565.041	0.103012
566.969	0.0990501
568.898	0.095726
570.826	0.0927909
572.755	0.090008
574.683	0.0873362
576.611	0.0848132
578.54	0.0829467
580.468	0.0812048
582.397	0.0788259
584.325	0.075898
586.254	0.0733247
588.182	0.0708108
590.111	0.068211
592.039	0.0656987
593.968	0.0630291
595.896	0.0611817
597.824	0.0593235
599.753	0.0572645
601.682	0.0555539
603.61	0.0547355
605.538	0.0541192
607.467	0.0536589
609.395	0.0537143
611.324	0.0541138
613.252	0.0543171
615.181	0.0546694
617.109	0.055979
619.038	0.0573125
620.966	0.0584026
622.894	0.0598922
624.823	0.0610666
626.751	0.061915
628.68	0.0620884
630.608	0.0620128
632.537	0.0620147
634.465	0.0620863
636.394	0.0625419
638.322	0.0636447
640.251	0.0650536
642.179	0.066624
644.108	0.0685147
646.036	0.0708729
647.965	0.0737499
649.893	0.0762976
651.822	0.0786728
653.75	0.0805612
655.678	0.0813538
657.607	0.0811022
659.535	0.079726
661.464	0.07729
663.392	0.0737978
665.321	0.0695203
667.249	0.0656235
669.178	0.0622477
671.106	0.0598141
673.035	0.0582901
674.963	0.0575912
676.892	0.0570396
678.82	0.056372
680.749	0.055679
682.677	0.0558989
684.606	0.0558518
686.534	0.0555531
688.462	0.0559066
690.391	0.056899
692.319	0.0572244
694.248	0.0574181
696.176	0.057896
698.105	0.0584596
700.033	0.0584772
