Measurement: Infrared, Infrared Data Processed
Mineral: Sillimanite
Rruff sample: R050601
Ideal chemistry: Al_2_OSiO_4_
Locality: Mogok, Burma
Source: Bill Larson
Description: Tan colored cleavage fragment from a water worn pebble
Measured chemistry: (Al_1.99_Fe^3+^_0.01_)_Î£=2_Si_1.00_O_5_
x	intensity
399.193	0.250985
408.835	0.273696
418.477	0.287162
428.12	0.300807
437.762	0.274075
447.404	0.238515
457.047	0.205489
466.689	0.190332
476.331	0.201637
485.974	0.231689
495.616	0.206034
505.258	0.227414
514.901	0.180846
524.543	0.169248
534.185	0.150397
543.828	0.15062
553.47	0.0998266
563.112	0.134637
572.755	0.157813
582.397	0.167967
592.039	0.17003
601.682	0.166792
611.324	0.14409
620.966	0.122461
630.609	0.116491
640.251	0.0860865
649.893	0.0438681
659.536	0.0402648
669.178	0.0679094
678.82	0.130398
688.463	0.201351
698.105	0.186917
707.747	0.158834
717.39	0.139427
727.032	0.137034
736.674	0.14682
746.317	0.144151
755.959	0.121171
765.601	0.0887083
775.244	0.0863043
784.886	0.110464
794.528	0.155677
804.171	0.226464
813.813	0.266593
823.455	0.207048
833.098	0.150696
842.74	0.110964
852.382	0.0779642
862.025	0.0774779
871.667	0.134889
881.309	0.236944
890.952	0.258891
900.594	0.248112
910.236	0.21516
919.879	0.179077
929.521	0.16229
939.163	0.157684
948.806	0.176567
958.448	0.179711
968.09	0.12017
977.733	0.0896524
987.375	0.0730919
997.017	0.0575972
1006.66	0.0440974
1016.3	0.0321299
1025.94	0.0230901
1035.59	0.0185689
1045.23	0.0169767
1054.87	0.0156265
1064.51	0.0152392
1074.16	0.0157494
1083.8	0.0171237
1093.44	0.0191904
1103.08	0.0221366
1112.72	0.0264114
1122.37	0.0318277
1132.01	0.0428308
1141.65	0.0598357
1151.3	0.0898184
1160.94	0.148965
1170.58	0.237773
1180.22	0.218691
1189.86	0.138423
1199.51	0.0948256
1209.15	0.0668224
1218.79	0.0389272
1228.43	0.0173455
1238.08	0.00920811
1247.72	0.00615346
1257.36	0.00427717
1267	0.00351083
1276.64	0.00350447
1286.29	0.00249349
1295.93	0.0020816
1305.57	0.00218206
1315.21	0.00217237
1324.86	0.00197405
1334.5	0.0019172
1344.14	0.00160406
1353.78	0.00147354
1363.43	0.0017228
1373.07	0.00170391
1382.71	0.0020146
1392.35	0.00248491
1401.99	0.00311361
1411.64	0.00343457
1421.28	0.00354717
1430.92	0.00425805
1440.57	0.00414632
1450.21	0.00421563
1459.85	0.00415119
1469.49	0.00404267
1479.13	0.00414491
1488.78	0.00409731
1498.42	0.00375512
1508.06	0.00353292
1517.7	0.00345566
1527.35	0.00296099
1536.99	0.00305903
1546.63	0.00297815
1556.27	0.00317139
1565.91	0.00323264
1575.56	0.00323733
1585.2	0.00287032
1594.84	0.00283329
1604.48	0.00290508
1614.13	0.00300096
1623.77	0.00306076
1633.41	0.00340009
1643.05	0.00312035
1652.7	0.0037928
1662.34	0.00327686
1671.98	0.00382949
1681.62	0.00370785
1691.27	0.00341326
1700.91	0.00351369
1710.55	0.00386888
1720.19	0.00278103
1729.84	0.00384947
1739.48	0.00221271
1749.12	0.00191233
1758.76	0.00265039
1768.4	0.00291344
1778.05	0.00306677
1787.69	0.00353872
1797.33	0.00324211
1806.97	0.00344296
1816.62	0.00303432
1826.26	0.00270353
1835.9	0.0031552
1845.54	0.00351743
1855.18	0.00199587
1864.83	0.00311113
1874.47	0.00241526
1884.11	0.00320985
1893.75	0.00137708
1903.4	0.00263612
1913.04	0.000393598
1922.68	0.0017618
1932.32	0.00110325
1941.97	7.12331e-05
1951.61	0.00299292
1961.25	0.00384102
1970.89	0.00249254
1980.54	0.00240174
1990.18	0.00268625
1999.82	-5.43332e-05
2009.46	0.00455151
2019.11	0.00460449
2028.75	0.0052657
2038.39	0.00569808
2048.03	0.00615419
2057.67	0.00396234
2067.32	0.00612427
2076.96	0.0084372
2086.6	0.00714023
2096.24	0.00614514
2105.89	0.00564212
2115.53	0.00606745
2125.17	0.00522785
2134.81	0.00538909
2144.45	0.00394833
2154.1	0.00218388
2163.74	0.0107458
2173.38	0.0071567
2183.02	0.00812109
2192.67	0.007825
2202.31	0.00709102
2211.95	0.00682123
2221.59	0.0056739
2231.24	0.00588907
2240.88	0.00695972
2250.52	0.00572993
2260.16	0.00727949
2269.8	0.00668339
2279.45	0.00810157
2289.09	0.00823525
2298.73	0.00818946
2308.38	0.00609282
2318.02	0.00698094
2327.66	0.00598506
2337.3	0.00648635
2346.94	0.00561607
2356.59	0.00692861
2366.23	0.00580129
2375.87	0.00503632
2385.51	0.00559066
2395.16	0.00520712
2404.8	0.00545882
2414.44	0.00662208
2424.08	0.00705056
2433.72	0.00700952
2443.37	0.0071232
2453.01	0.00816553
2462.65	0.00851918
2472.29	0.00833704
2481.94	0.00717719
2491.58	0.0097919
2501.22	0.0090397
2510.86	0.00892624
2520.51	0.0104041
2530.15	0.00863133
2539.79	0.00867593
2549.43	0.00990598
2559.07	0.00920408
2568.72	0.00944002
2578.36	0.0098316
2588	0.00946817
2597.64	0.0108837
2607.29	0.00924395
2616.93	0.00924133
2626.57	0.0110126
2636.21	0.00992568
2645.86	0.0105808
2655.5	0.0107929
2665.14	0.0102426
2674.78	0.010057
2684.43	0.0100693
2694.07	0.00932854
2703.71	0.00984529
2713.35	0.00954664
2722.99	0.0101687
2732.64	0.00850502
2742.28	0.0102755
2751.92	0.0111763
2761.56	0.0109808
2771.21	0.0101107
2780.85	0.0108259
2790.49	0.0106589
2800.13	0.0105262
2809.78	0.0102131
2819.42	0.00937114
2829.06	0.0100313
2838.7	0.0108816
2848.34	0.0107935
2857.99	0.0106479
2867.63	0.0103026
2877.27	0.0104444
2886.91	0.0121589
2896.56	0.00971767
2906.2	0.00990445
2915.84	0.00886218
2925.48	0.0119661
2935.13	0.0102717
2944.77	0.0107814
2954.41	0.0109173
2964.05	0.0128301
2973.7	0.0117654
2983.34	0.0134241
2992.98	0.0120443
3002.62	0.0131285
3012.26	0.0130026
3021.91	0.0114934
3031.55	0.0131691
3041.19	0.01343
3050.83	0.0113706
3060.48	0.0139934
3070.12	0.013801
3079.76	0.0112175
3089.4	0.0112855
3099.05	0.0129209
3108.69	0.013704
3118.33	0.0111845
3127.97	0.0133709
3137.61	0.0132836
3147.26	0.0102179
3156.9	0.0136577
3166.54	0.0140558
3176.18	0.0134616
3185.83	0.0142907
3195.47	0.0146847
3205.11	0.0148053
3214.75	0.0132466
3224.4	0.0118243
3234.04	0.0163131
3243.68	0.0134035
3253.32	0.0165093
3262.97	0.0140016
3272.61	0.0161482
3282.25	0.0131449
3291.89	0.0164226
3301.53	0.0154383
3311.18	0.0147893
3320.82	0.0153966
3330.46	0.0142967
3340.1	0.0147735
3349.75	0.0139937
3359.39	0.0147967
3369.03	0.0166018
3378.67	0.0150569
3388.32	0.0158781
3397.96	0.0172537
3407.6	0.0153686
3417.24	0.0155821
3426.89	0.017633
3436.53	0.0153399
3446.17	0.0162274
3455.81	0.014155
3465.45	0.0169162
3475.1	0.01651
3484.74	0.0174362
3494.38	0.0170985
3504.02	0.0136998
3513.67	0.0188173
3523.31	0.0185009
3532.95	0.0184199
3542.59	0.0187136
3552.24	0.0201107
3561.88	0.0169987
3571.52	0.0190541
3581.16	0.0114475
3590.8	0.0174599
3600.45	0.0158699
3610.09	0.0177191
3619.73	0.0168894
3629.37	0.0180114
3639.02	0.0169933
3648.66	0.0192194
3658.3	0.0164395
3667.94	0.0160914
3677.59	0.0151274
3687.23	0.0154457
3696.87	0.016518
3706.51	0.0160872
3716.16	0.0154276
3725.8	0.0178718
3735.44	0.0216012
3745.08	0.0159275
3754.72	0.0163718
3764.37	0.0171957
3774.01	0.0169544
3783.65	0.0190044
3793.29	0.0192027
3802.94	0.0187519
3812.58	0.0116065
3822.22	0.0222939
3831.86	0.019793
3841.51	0.0159501
3851.15	0.019668
3860.79	0.0131214
3870.43	0.0183432
3880.07	0.0219069
3889.72	0.0179476
3899.36	0.0155684
3909	0.018963
3918.64	0.01829
3928.29	0.0151532
3937.93	0.0231401
3947.57	0.0204053
3957.21	0.0195924
3966.86	0.0187433
3976.5	0.0160848
3986.14	0.0222796
3995.78	0.0148569
