Measurement: Infrared, Infrared Data Processed
Mineral: Skutterudite
Rruff sample: R050593
Ideal chemistry: Co^3+^As_3_
Locality: Bou Azzer, Morocco
Source: Marcus Origlieri
Description: Gray metallic, massive to coarsely crystalline
Measured chemistry: (Co_0.86_Fe_0.11_Ni_0.07_)_Σ=1.04_(As_2.93_S_0.07_)_Σ=3.00_
x	intensity
399.193	0.254122
408.835	0.264459
418.477	0.261552
428.12	0.267594
437.762	0.272751
447.404	0.275608
457.047	0.282381
466.689	0.28427
476.331	0.286324
485.974	0.294265
495.616	0.293329
505.258	0.300505
514.901	0.303526
524.543	0.304333
534.185	0.306955
543.828	0.311562
553.47	0.314697
563.112	0.319046
572.755	0.321416
582.397	0.325127
592.039	0.328433
601.682	0.330924
611.324	0.334709
620.966	0.335603
630.609	0.339413
640.251	0.341775
649.893	0.342245
659.536	0.346305
669.178	0.348147
678.82	0.350148
688.463	0.353175
698.105	0.356569
707.747	0.358696
717.39	0.358823
727.032	0.360727
736.674	0.364738
746.317	0.367111
755.959	0.369955
765.601	0.372529
775.244	0.375188
784.886	0.377202
794.528	0.37936
804.171	0.38086
813.813	0.381918
823.455	0.383908
833.098	0.386107
842.74	0.387132
852.382	0.389309
862.025	0.392872
871.667	0.397364
881.309	0.387477
890.952	0.389696
900.594	0.392412
910.236	0.395441
919.879	0.396887
929.521	0.400217
939.163	0.403278
948.806	0.405974
958.448	0.40856
968.09	0.410259
977.733	0.412887
987.375	0.414338
997.017	0.416717
1006.66	0.418432
1016.3	0.41985
1025.94	0.42149
1035.59	0.423683
1045.23	0.426064
1054.87	0.426086
1064.51	0.427859
1074.16	0.430073
1083.8	0.430825
1093.44	0.432581
1103.08	0.434428
1112.72	0.435617
1122.37	0.437343
1132.01	0.440613
1141.65	0.443327
1151.3	0.444217
1160.94	0.444651
1170.58	0.445737
1180.22	0.446721
1189.86	0.44994
1199.51	0.451835
1209.15	0.453629
1218.79	0.454397
1228.43	0.45638
1238.08	0.457945
1247.72	0.458745
1257.36	0.460805
1267	0.461983
1276.64	0.464396
1286.29	0.466304
1295.93	0.468513
1305.57	0.46999
1315.21	0.472308
1324.86	0.474969
1334.5	0.477873
1344.14	0.479937
1353.78	0.483122
1363.43	0.486808
1373.07	0.490463
1382.71	0.495191
1392.35	0.499626
1401.99	0.502144
1411.64	0.504206
1421.28	0.502387
1430.92	0.500406
1440.57	0.497219
1450.21	0.493669
1459.85	0.49069
1469.49	0.487464
1479.13	0.486437
1488.78	0.485217
1498.42	0.484496
1508.06	0.483719
1517.7	0.484175
1527.35	0.485155
1536.99	0.485867
1546.63	0.486477
1556.27	0.488321
1565.91	0.490776
1575.56	0.4926
1585.2	0.494044
1594.84	0.495557
1604.48	0.498586
1614.13	0.49913
1623.77	0.502434
1633.41	0.503848
1643.05	0.504956
1652.7	0.50696
1662.34	0.507866
1671.98	0.510065
1681.62	0.511602
1691.27	0.513522
1700.91	0.515172
1710.55	0.516251
1720.19	0.517403
1729.84	0.519833
1739.48	0.519228
1749.12	0.520869
1758.76	0.52348
1768.4	0.524524
1778.05	0.527642
1787.69	0.528754
1797.33	0.529603
1806.97	0.529598
1816.62	0.528857
1826.26	0.530981
1835.9	0.532264
1845.54	0.532574
1855.18	0.532666
1864.83	0.535142
1874.47	0.534958
1884.11	0.536766
1893.75	0.538331
1903.4	0.538782
1913.04	0.538771
1922.68	0.535027
1932.32	0.53713
1941.97	0.534933
1951.61	0.535174
1961.25	0.529964
1970.89	0.524644
1980.54	0.529697
1990.18	0.537683
1999.82	0.535495
2009.46	0.531856
2019.11	0.529363
2028.75	0.531791
2038.39	0.536597
2048.03	0.54472
2057.67	0.549233
2067.32	0.557605
2076.96	0.555904
2086.6	0.561746
2096.24	0.563245
2105.89	0.567854
2115.53	0.567877
2125.17	0.566038
2134.81	0.555624
2144.45	0.557649
2154.1	0.543246
2163.74	0.555099
2173.38	0.560182
2183.02	0.560678
2192.67	0.565715
2202.31	0.570932
2211.95	0.571156
2221.59	0.575147
2231.24	0.579385
2240.88	0.58406
2250.52	0.584609
2260.16	0.588324
2269.8	0.592116
2279.45	0.597627
2289.09	0.601651
2298.73	0.603838
2308.38	0.606116
2318.02	0.609311
2327.66	0.613869
2337.3	0.616383
2346.94	0.614384
2356.59	0.615214
2366.23	0.617785
2375.87	0.615528
2385.51	0.616802
2395.16	0.616085
2404.8	0.618235
2414.44	0.621758
2424.08	0.619816
2433.72	0.621495
2443.37	0.623105
2453.01	0.625091
2462.65	0.626246
2472.29	0.627813
2481.94	0.629548
2491.58	0.630383
2501.22	0.631523
2510.86	0.633696
2520.51	0.632925
2530.15	0.636664
2539.79	0.636088
2549.43	0.641782
2559.07	0.640158
2568.72	0.641373
2578.36	0.64627
2588	0.646152
2597.64	0.647538
2607.29	0.65069
2616.93	0.653206
2626.57	0.653302
2636.21	0.657972
2645.86	0.659829
2655.5	0.661362
2665.14	0.66406
2674.78	0.665925
2684.43	0.665911
2694.07	0.667135
2703.71	0.667886
2713.35	0.669357
2722.99	0.671974
2732.64	0.673292
2742.28	0.67343
2751.92	0.676042
2761.56	0.677325
2771.21	0.678687
2780.85	0.679771
2790.49	0.679528
2800.13	0.681121
2809.78	0.684498
2819.42	0.686031
2829.06	0.688254
2838.7	0.688353
2848.34	0.688691
2857.99	0.687178
2867.63	0.689451
2877.27	0.693162
2886.91	0.692945
2896.56	0.694948
2906.2	0.698682
2915.84	0.698924
2925.48	0.695581
2935.13	0.697474
2944.77	0.697025
2954.41	0.699714
2964.05	0.699483
2973.7	0.702796
2983.34	0.704305
2992.98	0.705347
3002.62	0.708307
3012.26	0.709734
3021.91	0.708747
3031.55	0.70946
3041.19	0.710957
3050.83	0.715297
3060.48	0.716055
3070.12	0.718827
3079.76	0.716301
3089.4	0.720139
3099.05	0.722121
3108.69	0.720451
3118.33	0.722853
3127.97	0.724139
3137.61	0.726266
3147.26	0.729431
3156.9	0.729437
3166.54	0.728171
3176.18	0.73179
3185.83	0.734188
3195.47	0.737253
3205.11	0.738661
3214.75	0.734238
3224.4	0.739623
3234.04	0.738217
3243.68	0.740822
3253.32	0.744787
3262.97	0.745385
3272.61	0.747598
3282.25	0.746817
3291.89	0.752128
3301.53	0.750526
3311.18	0.755014
3320.82	0.754868
3330.46	0.754877
3340.1	0.759668
3349.75	0.7594
3359.39	0.760775
3369.03	0.764808
3378.67	0.762456
3388.32	0.76373
3397.96	0.762165
3407.6	0.767129
3417.24	0.766544
3426.89	0.773251
3436.53	0.772442
3446.17	0.77062
3455.81	0.776092
3465.45	0.778752
3475.1	0.777614
3484.74	0.776352
3494.38	0.779847
3504.02	0.782729
3513.67	0.786056
3523.31	0.784621
3532.95	0.786564
3542.59	0.790029
3552.24	0.791874
3561.88	0.790707
3571.52	0.793837
3581.16	0.799219
3590.8	0.800276
3600.45	0.799215
3610.09	0.795897
3619.73	0.805069
3629.37	0.801771
3639.02	0.800648
3648.66	0.805652
3658.3	0.807126
3667.94	0.816298
3677.59	0.81562
3687.23	0.814358
3696.87	0.827715
3706.51	0.825786
3716.16	0.822395
3725.8	0.826192
3735.44	0.82942
3745.08	0.838812
3754.72	0.831067
3764.37	0.838975
3774.01	0.84422
3783.65	0.839098
3793.29	0.844026
3802.94	0.843182
3812.58	0.843726
3822.22	0.847626
3831.86	0.853685
3841.51	0.855908
3851.15	0.858924
3860.79	0.856446
3870.43	0.857421
3880.07	0.862238
3889.72	0.862746
3899.36	0.864505
3909	0.863001
3918.64	0.871559
3928.29	0.869178
3937.93	0.873891
3947.57	0.877017
3957.21	0.884907
3966.86	0.878734
3976.5	0.879152
3986.14	0.881413
3995.78	0.886033
