Measurement: Infrared, Infrared Data Processed
Mineral: Stibiotantalite
Rruff sample: R050232
Ideal chemistry: Sb^3+^Ta^5+^O_4_
Locality: Himalaya mine, Mesa Grande, San Diego County, California, USA
Source: Marcus Origlieri
Description: Brown crystal fragment
Measured chemistry: lighter and darker phases: Sb_1.00_(Ta_0.72_Nb_0.28_)_Î£=1_O_4_
x	intensity
372.194	0
381.836	0.154152
391.479	0.19207
401.121	0.2498
410.763	0.231744
420.406	0.211251
430.048	0.188992
439.69	0.187953
449.333	0.233345
458.975	0.271085
468.617	0.278485
478.26	0.274418
487.902	0.270785
497.544	0.282832
507.187	0.30736
516.829	0.33189
526.471	0.349867
536.114	0.356943
545.756	0.355863
555.398	0.350427
565.041	0.339714
574.683	0.324765
584.325	0.30834
593.968	0.29083
603.61	0.268344
613.252	0.243329
622.895	0.223406
632.537	0.20926
642.179	0.19505
651.822	0.181566
661.464	0.174341
671.106	0.178535
680.749	0.190786
690.391	0.19067
700.033	0.171352
709.676	0.149376
719.318	0.132635
728.96	0.120615
738.603	0.111645
748.245	0.103581
757.887	0.0926911
767.53	0.0782705
777.172	0.062813
786.814	0.0487737
796.457	0.0347298
806.099	0.0226547
815.741	0.0146668
825.384	0.0102029
835.026	0.00749314
844.668	0.00546246
854.311	0.00407315
863.953	0.00324489
873.595	0.00284412
883.238	0.00268705
892.88	0.00311331
902.522	0.00357464
912.165	0.00431797
921.807	0.00428321
931.449	0.00309169
941.092	0.00151898
950.734	0.000430329
960.376	0.000122713
970.019	0.000198867
979.661	0.000600534
989.303	0.00113255
998.946	0.00152132
1008.59	0.00204709
1018.23	0.00238632
1027.87	0.00220282
1037.52	0.0023068
1047.16	0.00207508
1056.8	0.00175809
1066.44	0.000858851
1076.08	0.000275182
1085.73	0.000331204
1095.37	1.38059e-05
1105.01	0.000218488
1114.65	0.000123354
1124.3	0.000248885
1133.94	2.1195e-05
1143.58	-3.98681e-05
1153.22	-0.000231886
1162.87	-0.000542464
1172.51	-0.000885555
1182.15	-0.000910422
1191.79	-0.00064645
1201.43	-0.000749698
1211.08	-0.000523865
1220.72	-0.000401769
1230.36	-0.000434644
1240	-3.16873e-05
1249.65	0.00022199
1259.29	0.000217799
1268.93	0.00028982
1278.57	0.000447534
1288.22	0.000239603
1297.86	-4.22001e-05
1307.5	-0.000316162
1317.14	-0.000257712
1326.79	-0.000480842
1336.43	-0.000636142
1346.07	-0.000405058
1355.71	-0.000258073
1365.35	-0.000369769
1375	-0.000402894
1384.64	-0.00150021
1394.28	-0.00212941
1403.92	-0.00270864
1413.57	-0.00317275
1423.21	-0.00337548
1432.85	-0.00305017
1442.49	-0.00270677
1452.13	-0.00175522
1461.78	-0.00058496
1471.42	-0.000560928
1481.06	-0.000339195
1490.7	-0.000522576
1500.35	-0.000928178
1509.99	-0.00132807
1519.63	-0.00123326
1529.27	-0.00101522
1538.92	-0.000983842
1548.56	-0.000766925
1558.2	-0.000887178
1567.84	-0.000888571
1577.49	-0.00092572
1587.13	-0.00063546
1596.77	-0.000593111
1606.41	-0.00059288
1616.06	-0.000760429
1625.7	-0.000472672
1635.34	-0.000737652
1644.98	-0.000803918
1654.62	-0.00145177
1664.27	-0.00170854
1673.91	-0.00185628
1683.55	-0.00159365
1693.19	-0.00150161
1702.84	-0.00140683
1712.48	-0.00142844
1722.12	-0.00140015
1731.76	-0.00157172
1741.4	-0.00225474
1751.05	-0.00332048
1760.69	-0.00264075
1770.33	-0.00238909
1779.97	-0.00212417
1789.62	-0.00213871
1799.26	-0.00184672
1808.9	-0.00192992
1818.54	-0.00168645
1828.19	-0.00127975
1837.83	-0.00110106
1847.47	-0.00124241
1857.11	-0.00122561
1866.76	-0.00110381
1876.4	-0.00128306
1886.04	-0.00128774
1895.68	-0.00152531
1905.33	-0.00132392
1914.97	-0.00230966
1924.61	-0.00243364
1934.25	-0.00156397
1943.89	-0.00142424
1953.54	-0.00232875
1963.18	-0.00117806
1972.82	-0.00110924
1982.46	-0.00083062
1992.11	0.00026688
2001.75	-0.00128324
2011.39	-0.00122951
2021.03	-0.00186765
2030.67	0.00121215
2040.32	-0.000647441
2049.96	4.35114e-05
2059.6	-0.00209546
2069.24	-0.00103314
2078.89	-0.000596881
2088.53	-0.00255288
2098.17	-0.00259143
2107.81	-0.00231832
2117.46	-0.00274785
2127.1	-0.00259616
2136.74	-0.00273785
2146.38	-0.00227213
2156.03	-0.000936717
2165.67	0.00158599
2175.31	2.42889e-05
2184.95	0.00249574
2194.59	0.000620157
2204.24	-0.000775501
2213.88	-0.000267491
2223.52	-0.00016737
2233.16	-0.00102256
2242.81	-0.000608668
2252.45	-0.00128473
2262.09	-0.0013269
2271.73	-0.00085853
2281.38	-0.000616998
2291.02	-0.000885218
2300.66	-0.00166464
2310.3	-0.00182858
2319.95	-0.001546
2329.59	-0.00204171
2339.23	-0.00156145
2348.87	-0.0023502
2358.51	-0.00113851
2368.16	-0.00134762
2377.8	-0.0016619
2387.44	-0.00226919
2397.08	-0.00237088
2406.73	-0.00185268
2416.37	-0.00221977
2426.01	-0.00155443
2435.65	-0.00165533
2445.3	-0.000697046
2454.94	-0.00081417
2464.58	-0.00100976
2474.22	-4.07249e-05
2483.86	-0.00049521
2493.51	-0.000443339
2503.15	-0.000369906
2512.79	-0.000494286
2522.43	-0.000999555
2532.08	0.000542134
2541.72	0.000104338
2551.36	-0.000156418
2561	0.000372097
2570.65	0.000704557
2580.29	0.000536442
2589.93	0.000582337
2599.57	0.000177979
2609.22	0.00137766
2618.86	0.00104724
2628.5	0.000634596
2638.14	0.000505388
2647.78	0.000569165
2657.43	0.000250399
2667.07	-0.000576392
2676.71	-7.94977e-05
2686.35	0.000134155
2696	0.000222877
2705.64	0.000409976
2715.28	0.000341535
2724.92	0.000603035
2734.57	0.000746355
2744.21	0.00111359
2753.85	0.00100915
2763.49	0.00117378
2773.14	0.00133653
2782.78	0.00172782
2792.42	0.00167483
2802.06	0.00278902
2811.7	0.00294723
2821.35	0.00307685
2830.99	0.0038566
2840.63	0.00481893
2850.27	0.00323948
2859.92	0.00430895
2869.56	0.0040669
2879.2	0.00490247
2888.84	0.00583763
2898.49	0.00595197
2908.13	0.00634176
2917.77	0.00590932
2927.41	0.00492597
2937.05	0.00328842
2946.7	0.00447948
2956.34	0.00455752
2965.98	0.00382395
2975.62	0.00232399
2985.27	0.00216246
2994.91	0.00197691
3004.55	0.00257659
3014.19	0.000114486
3023.84	0.00244646
3033.48	0.00277342
3043.12	0.00358932
3052.76	0.00346613
3062.41	0.00424978
3072.05	0.00431231
3081.69	0.00401904
3091.33	0.00411539
3100.97	0.00454088
3110.62	0.00513326
3120.26	0.00416847
3129.9	0.00558737
3139.54	0.00584966
3149.19	0.00579399
3158.83	0.00639889
3168.47	0.00545531
3178.11	0.00613739
3187.76	0.00590009
3197.4	0.00710459
3207.04	0.00541471
3216.68	0.00591871
3226.32	0.00569663
3235.97	0.00566065
3245.61	0.00570242
3255.25	0.00623763
3264.89	0.00562786
3274.54	0.00560635
3284.18	0.00617433
3293.82	0.00608777
3303.46	0.00532347
3313.11	0.00602941
3322.75	0.00586085
3332.39	0.00527298
3342.03	0.00485431
3351.68	0.00506198
3361.32	0.00586547
3370.96	0.00479247
3380.6	0.0049001
3390.24	0.00470054
3399.89	0.0047663
3409.53	0.00439374
3419.17	0.00390099
3428.81	0.00354205
3438.46	0.00308105
3448.1	0.00311589
3457.74	0.00389926
3467.38	0.00313258
3477.03	0.00238757
3486.67	0.00262472
3496.31	0.00208241
3505.95	0.00186241
3515.59	0.00104821
3525.24	0.00174373
3534.88	0.000583216
3544.52	0.00152347
3554.16	0.000427678
3563.81	0.000705123
3573.45	-8.65758e-05
3583.09	0.00176412
3592.73	-0.000749141
3602.38	-0.000216201
3612.02	-0.00116806
3621.66	-0.000736505
3631.3	-0.000717536
3640.95	-0.00102045
3650.59	-0.000433311
3660.23	-0.00100189
3669.87	0.000274956
3679.51	-0.000995681
3689.16	-0.00119273
3698.8	-0.00107624
3708.44	8.91685e-05
3718.08	0.000179723
3727.73	0.000729069
3737.37	-0.000921741
3747.01	-5.38379e-05
3756.65	0.000209883
3766.3	-0.000342146
3775.94	-0.000627339
3785.58	-5.52833e-06
3795.22	0.000735655
3804.86	0.000273734
3814.51	-0.000320911
3824.15	0.000140697
3833.79	-0.00107446
3843.43	-0.000371665
3853.08	-0.000616357
3862.72	-5.72801e-05
3872.36	-0.000158817
3882	-0.000334144
3891.65	0.000340402
3901.29	0.000393376
3910.93	0.00035876
3920.57	5.3972e-05
3930.22	0.000863358
3939.86	0.000105783
3949.5	0.000829175
3959.14	-0.000636101
3968.78	-0.000361249
3978.43	-0.000109464
3988.07	-0.000367478
3997.71	-2.01464e-05
