Measurement: Infrared, Infrared Data Processed
Mineral: Stilbite-Ca
Rruff sample: R050106
Ideal chemistry: NaCa_4_(Si_27_Al_9_)O_72_28H_2_O
Locality: Corea, Sonora, Mexico
Source: Fred Devito
Description: White to colorless sheaflike aggregates of flattened single crystals
Measured chemistry: Na_1.42_Ca_4.28_(Si_26.02_Al_9.98_)O_72_Â·27.61H_2_O; trace amounts of K; H_2_O estimated by difference
x	intensity
399.193	0.126571
408.835	0.128897
418.477	0.134253
428.12	0.138179
437.762	0.140292
447.404	0.130567
457.047	0.119003
466.689	0.113404
476.331	0.105047
485.974	0.100596
495.616	0.100584
505.258	0.101025
514.901	0.102612
524.543	0.107448
534.185	0.113608
543.828	0.117883
553.47	0.115489
563.112	0.10841
572.755	0.0982009
582.397	0.0873721
592.039	0.0742126
601.682	0.0600354
611.324	0.0475662
620.966	0.0409367
630.609	0.0386222
640.251	0.0381488
649.893	0.0388214
659.536	0.0401163
669.178	0.0410361
678.82	0.0413146
688.463	0.0422409
698.105	0.0431805
707.747	0.04343
717.39	0.0423478
727.032	0.0409446
736.674	0.0392294
746.317	0.0362903
755.959	0.0341794
765.601	0.0337868
775.244	0.034231
784.886	0.0334115
794.528	0.0311346
804.171	0.0264573
813.813	0.0216361
823.455	0.0195011
833.098	0.0192588
842.74	0.0204876
852.382	0.022037
862.025	0.0246104
871.667	0.0275437
881.309	0.0316067
890.952	0.0369161
900.594	0.0435346
910.236	0.0528091
919.879	0.0655589
929.521	0.0827706
939.163	0.105726
948.806	0.135812
958.448	0.169949
968.09	0.199014
977.733	0.215914
987.375	0.223644
997.017	0.22589
1006.66	0.223175
1016.3	0.215331
1025.94	0.202556
1035.59	0.186347
1045.23	0.168135
1054.87	0.148953
1064.51	0.127219
1074.16	0.10704
1083.8	0.0926674
1093.44	0.084186
1103.08	0.0804135
1112.72	0.080816
1122.37	0.083584
1132.01	0.0847757
1141.65	0.082409
1151.3	0.0763758
1160.94	0.0685167
1170.58	0.0614205
1180.22	0.0534671
1189.86	0.0436264
1199.51	0.0312915
1209.15	0.0212717
1218.79	0.0155423
1228.43	0.0121117
1238.08	0.0102161
1247.72	0.0086187
1257.36	0.00773459
1267	0.00673303
1276.64	0.00593264
1286.29	0.00595504
1295.93	0.00542721
1305.57	0.00519439
1315.21	0.0052677
1324.86	0.00514028
1334.5	0.00531305
1344.14	0.00521173
1353.78	0.0050595
1363.43	0.00556583
1373.07	0.00541969
1382.71	0.00562462
1392.35	0.00521442
1401.99	0.00516608
1411.64	0.00524688
1421.28	0.00510007
1430.92	0.00541447
1440.57	0.00574903
1450.21	0.00612949
1459.85	0.00605307
1469.49	0.00561224
1479.13	0.00523892
1488.78	0.00520794
1498.42	0.00529208
1508.06	0.00544721
1517.7	0.00559856
1527.35	0.00582522
1536.99	0.00614266
1546.63	0.00645059
1556.27	0.00687103
1565.91	0.00720751
1575.56	0.0080239
1585.2	0.00863876
1594.84	0.00997832
1604.48	0.0123448
1614.13	0.017535
1623.77	0.0266906
1633.41	0.0346548
1643.05	0.0340912
1652.7	0.0282649
1662.34	0.0222452
1671.98	0.0173152
1681.62	0.0137943
1691.27	0.0110861
1700.91	0.00869116
1710.55	0.00734541
1720.19	0.00772642
1729.84	0.00987017
1739.48	0.00811549
1749.12	0.00451673
1758.76	0.00372007
1768.4	0.00351633
1778.05	0.00339282
1787.69	0.00377754
1797.33	0.00351433
1806.97	0.00356682
1816.62	0.00323676
1826.26	0.00317845
1835.9	0.00280172
1845.54	0.00329943
1855.18	0.00289945
1864.83	0.00296251
1874.47	0.0020255
1884.11	0.00258696
1893.75	0.00252643
1903.4	0.0015325
1913.04	0.00113226
1922.68	0.0015547
1932.32	0.00178629
1941.97	0.0015023
1951.61	0.0010168
1961.25	0.00247357
1970.89	-0.000290827
1980.54	0.00366045
1990.18	0.00132469
1999.82	0.000371911
2009.46	0.00231885
2019.11	0.000977099
2028.75	0.00112454
2038.39	0.00116226
2048.03	0.00337908
2057.67	0.00317164
2067.32	0.00242464
2076.96	0.00231573
2086.6	0.00192232
2096.24	0.00155562
2105.89	0.00345514
2115.53	0.00343033
2125.17	0.0038369
2134.81	0.00418469
2144.45	0.00367557
2154.1	0.00548958
2163.74	0.00714418
2173.38	0.00650968
2183.02	0.00592585
2192.67	0.00555631
2202.31	0.00578608
2211.95	0.00496777
2221.59	0.00626858
2231.24	0.00526972
2240.88	0.00408092
2250.52	0.00486023
2260.16	0.00382551
2269.8	0.00414942
2279.45	0.00476891
2289.09	0.00449988
2298.73	0.00457247
2308.38	0.00416984
2318.02	0.00439667
2327.66	0.00382892
2337.3	0.00461373
2346.94	0.00394573
2356.59	0.00448119
2366.23	0.00352117
2375.87	0.00356
2385.51	0.00380562
2395.16	0.0042022
2404.8	0.00333715
2414.44	0.00438003
2424.08	0.00422121
2433.72	0.00480495
2443.37	0.00401481
2453.01	0.0048032
2462.65	0.00470875
2472.29	0.00485093
2481.94	0.00480642
2491.58	0.00462363
2501.22	0.00449915
2510.86	0.00430485
2520.51	0.0047168
2530.15	0.00507285
2539.79	0.00448607
2549.43	0.00562808
2559.07	0.00433751
2568.72	0.00480828
2578.36	0.0049899
2588	0.00567872
2597.64	0.00536356
2607.29	0.00531633
2616.93	0.00501569
2626.57	0.00562728
2636.21	0.0051096
2645.86	0.00558624
2655.5	0.00570638
2665.14	0.00506819
2674.78	0.00568864
2684.43	0.00490507
2694.07	0.00545901
2703.71	0.0052764
2713.35	0.00588775
2722.99	0.0059627
2732.64	0.00574067
2742.28	0.00561075
2751.92	0.00604781
2761.56	0.00613236
2771.21	0.00663894
2780.85	0.00596422
2790.49	0.00634193
2800.13	0.00713061
2809.78	0.00683776
2819.42	0.00695133
2829.06	0.00738458
2838.7	0.00797288
2848.34	0.0092799
2857.99	0.00927822
2867.63	0.00983375
2877.27	0.00996802
2886.91	0.00967452
2896.56	0.0103476
2906.2	0.0112598
2915.84	0.0115056
2925.48	0.0122458
2935.13	0.0118844
2944.77	0.0120889
2954.41	0.014014
2964.05	0.0131425
2973.7	0.0112643
2983.34	0.00960959
2992.98	0.0111158
3002.62	0.0106814
3012.26	0.0104769
3021.91	0.0112399
3031.55	0.012571
3041.19	0.0122879
3050.83	0.0136117
3060.48	0.0138654
3070.12	0.0149572
3079.76	0.0147839
3089.4	0.0156234
3099.05	0.0161373
3108.69	0.0178596
3118.33	0.0184784
3127.97	0.0194968
3137.61	0.0205578
3147.26	0.0215855
3156.9	0.022792
3166.54	0.0239299
3176.18	0.024234
3185.83	0.0262324
3195.47	0.0259844
3205.11	0.0274406
3214.75	0.0285029
3224.4	0.0312914
3234.04	0.0304266
3243.68	0.0311856
3253.32	0.0322559
3262.97	0.0312229
3272.61	0.031263
3282.25	0.0318791
3291.89	0.0319836
3301.53	0.0327238
3311.18	0.0319446
3320.82	0.032541
3330.46	0.0328125
3340.1	0.033701
3349.75	0.0359364
3359.39	0.0361063
3369.03	0.0367305
3378.67	0.036299
3388.32	0.0361986
3397.96	0.0365083
3407.6	0.0371032
3417.24	0.0380902
3426.89	0.0373584
3436.53	0.0374268
3446.17	0.0357746
3455.81	0.0361283
3465.45	0.0353344
3475.1	0.0355271
3484.74	0.0355275
3494.38	0.0350882
3504.02	0.0350801
3513.67	0.0350739
3523.31	0.0353967
3532.95	0.0352844
3542.59	0.0331304
3552.24	0.0326014
3561.88	0.0335394
3571.52	0.0313986
3581.16	0.0297768
3590.8	0.0283809
3600.45	0.0258028
3610.09	0.0239543
3619.73	0.017651
3629.37	0.012443
3639.02	0.00885039
3648.66	0.00542706
3658.3	0.00258732
3667.94	0.00117372
3677.59	0.00197625
3687.23	-0.000585242
3696.87	-0.0013609
3706.51	-0.000509672
3716.16	-0.00116592
3725.8	-0.00254118
3735.44	-0.000920432
3745.08	-0.000630809
3754.72	-0.00203007
3764.37	-0.0004317
3774.01	-0.000696256
3783.65	-0.00118936
3793.29	-0.00130645
3802.94	-0.00152597
3812.58	-0.00235782
3822.22	-0.000867664
3831.86	-0.00197438
3841.51	-0.00175189
3851.15	-0.00169035
3860.79	-0.0022013
3870.43	-0.00292587
3880.07	-0.0023836
3889.72	0.000793602
3899.36	3.91015e-05
3909	-0.00124822
3918.64	-0.00202158
3928.29	-0.00176849
3937.93	-0.00189172
3947.57	-8.85714e-05
3957.21	-0.00145116
3966.86	-0.00237492
3976.5	-0.00118553
3986.14	-0.0027918
3995.78	-0.00133779
