Measurement: Infrared, Infrared Data Processed
Mineral: Strunzite
Rruff sample: R050619
Ideal chemistry: Mn^2+^Fe^3+^_2_(P^5+^O_4_)_2_(OH)_2_6H_2_O
Locality: Hagendorf, Germany
Source: University of Arizona Mineral Museum
Description: Pale yellow acicular crystals
Measured chemistry: (Mn^2+^_0.52_Fe^2+^_0.43_Mg_0.05_)_Σ=1_Fe^3+^_2.00_(P_1.00_O_4_)_2_(OH)_2_·6H_2_O
x	intensity
399.193	0.176386
408.835	0.175603
418.477	0.185925
428.12	0.19112
437.762	0.180946
447.404	0.18021
457.047	0.179285
466.689	0.17658
476.331	0.176094
485.974	0.181069
495.616	0.186114
505.258	0.185854
514.901	0.172903
524.543	0.164484
534.185	0.160901
543.828	0.158462
553.47	0.156004
563.112	0.154356
572.755	0.152786
582.397	0.148968
592.039	0.142803
601.682	0.13948
611.324	0.13853
620.966	0.136064
630.609	0.128134
640.251	0.117983
649.893	0.107942
659.536	0.101156
669.178	0.100052
678.82	0.101783
688.463	0.103656
698.105	0.105172
707.747	0.107421
717.39	0.108688
727.032	0.110508
736.674	0.110784
746.317	0.109543
755.959	0.106442
765.601	0.104128
775.244	0.104448
784.886	0.106621
794.528	0.111788
804.171	0.116319
813.813	0.116674
823.455	0.115084
833.098	0.117153
842.74	0.117401
852.382	0.116939
862.025	0.117826
871.667	0.122992
881.309	0.132416
890.952	0.14435
900.594	0.160443
910.236	0.18057
919.879	0.208333
929.521	0.246161
939.163	0.293433
948.806	0.344929
958.448	0.383129
968.09	0.387789
977.733	0.371945
987.375	0.353416
997.017	0.339524
1006.66	0.325044
1016.3	0.301154
1025.94	0.268303
1035.59	0.237601
1045.23	0.214213
1054.87	0.194349
1064.51	0.177479
1074.16	0.166298
1083.8	0.162479
1093.44	0.1486
1103.08	0.124198
1112.72	0.100148
1122.37	0.0776071
1132.01	0.0604121
1141.65	0.0480073
1151.3	0.0390013
1160.94	0.0318701
1170.58	0.0258607
1180.22	0.021726
1189.86	0.0187982
1199.51	0.0165528
1209.15	0.0149169
1218.79	0.0138361
1228.43	0.0128252
1238.08	0.0126091
1247.72	0.0128808
1257.36	0.0144303
1267	0.0140462
1276.64	0.0123155
1286.29	0.0123371
1295.93	0.0125387
1305.57	0.01277
1315.21	0.0132018
1324.86	0.0136961
1334.5	0.0137235
1344.14	0.0136889
1353.78	0.0139907
1363.43	0.0145307
1373.07	0.0150146
1382.71	0.015625
1392.35	0.0171019
1401.99	0.0186051
1411.64	0.0201707
1421.28	0.0217389
1430.92	0.0219623
1440.57	0.0224083
1450.21	0.0220121
1459.85	0.0212564
1469.49	0.0212895
1479.13	0.0233169
1488.78	0.0239135
1498.42	0.0248535
1508.06	0.0263395
1517.7	0.0277643
1527.35	0.0299593
1536.99	0.0325313
1546.63	0.0340366
1556.27	0.0365573
1565.91	0.0384326
1575.56	0.0406054
1585.2	0.0411549
1594.84	0.0423997
1604.48	0.0454021
1614.13	0.0492349
1623.77	0.0516368
1633.41	0.0474843
1643.05	0.0419902
1652.7	0.037108
1662.34	0.0331753
1671.98	0.029176
1681.62	0.0265444
1691.27	0.0241166
1700.91	0.0206723
1710.55	0.0177066
1720.19	0.0177533
1729.84	0.015618
1739.48	0.0103868
1749.12	0.0110292
1758.76	0.01682
1768.4	0.0179361
1778.05	0.0183223
1787.69	0.0179261
1797.33	0.0173501
1806.97	0.0176103
1816.62	0.0169895
1826.26	0.0168518
1835.9	0.0168025
1845.54	0.0173891
1855.18	0.0169474
1864.83	0.0156137
1874.47	0.0169371
1884.11	0.0163111
1893.75	0.0163991
1903.4	0.0156439
1913.04	0.0153659
1922.68	0.0154556
1932.32	0.0154901
1941.97	0.0157605
1951.61	0.0146768
1961.25	0.0158961
1970.89	0.00860296
1980.54	0.0153939
1990.18	0.0152495
1999.82	0.0147706
2009.46	0.0153319
2019.11	0.0122291
2028.75	0.0150241
2038.39	0.0169016
2048.03	0.0197434
2057.67	0.0181398
2067.32	0.0197412
2076.96	0.0191809
2086.6	0.0222526
2096.24	0.0223728
2105.89	0.0227616
2115.53	0.0215469
2125.17	0.0201552
2134.81	0.0198757
2144.45	0.0196838
2154.1	0.0116969
2163.74	0.0198601
2173.38	0.0188209
2183.02	0.0234088
2192.67	0.0207064
2202.31	0.0243366
2211.95	0.0251234
2221.59	0.0253886
2231.24	0.0268825
2240.88	0.0265211
2250.52	0.0280955
2260.16	0.0299725
2269.8	0.028636
2279.45	0.0313865
2289.09	0.0319828
2298.73	0.0320177
2308.38	0.0319403
2318.02	0.0327167
2327.66	0.0320203
2337.3	0.0327293
2346.94	0.0324437
2356.59	0.0331145
2366.23	0.0334627
2375.87	0.0323081
2385.51	0.0326035
2395.16	0.0321276
2404.8	0.0329692
2414.44	0.0343144
2424.08	0.032514
2433.72	0.0323285
2443.37	0.0329689
2453.01	0.0346742
2462.65	0.0345186
2472.29	0.0363203
2481.94	0.0355545
2491.58	0.0366616
2501.22	0.0352542
2510.86	0.0351141
2520.51	0.036497
2530.15	0.0385263
2539.79	0.0395777
2549.43	0.040048
2559.07	0.0403861
2568.72	0.0414112
2578.36	0.0413598
2588	0.0429474
2597.64	0.0448375
2607.29	0.045704
2616.93	0.0472052
2626.57	0.0486955
2636.21	0.0497839
2645.86	0.0506156
2655.5	0.0533391
2665.14	0.0536987
2674.78	0.0540344
2684.43	0.0552724
2694.07	0.0574236
2703.71	0.0599496
2713.35	0.0626467
2722.99	0.0630852
2732.64	0.0644231
2742.28	0.0669944
2751.92	0.0694128
2761.56	0.0718203
2771.21	0.0728924
2780.85	0.0768586
2790.49	0.078833
2800.13	0.0806431
2809.78	0.084391
2819.42	0.0853762
2829.06	0.0883685
2838.7	0.0915474
2848.34	0.0920882
2857.99	0.0972294
2867.63	0.0996877
2877.27	0.102055
2886.91	0.10455
2896.56	0.107688
2906.2	0.108329
2915.84	0.112338
2925.48	0.112793
2935.13	0.119462
2944.77	0.122698
2954.41	0.123055
2964.05	0.126499
2973.7	0.129364
2983.34	0.127024
2992.98	0.130108
3002.62	0.133188
3012.26	0.133854
3021.91	0.136058
3031.55	0.135265
3041.19	0.137972
3050.83	0.13848
3060.48	0.141085
3070.12	0.139248
3079.76	0.142879
3089.4	0.145975
3099.05	0.146048
3108.69	0.14664
3118.33	0.144781
3127.97	0.14828
3137.61	0.148918
3147.26	0.150709
3156.9	0.149553
3166.54	0.1524
3176.18	0.153798
3185.83	0.155496
3195.47	0.154609
3205.11	0.154958
3214.75	0.159287
3224.4	0.157575
3234.04	0.158163
3243.68	0.160695
3253.32	0.16277
3262.97	0.167167
3272.61	0.165561
3282.25	0.167113
3291.89	0.170618
3301.53	0.173482
3311.18	0.173825
3320.82	0.177232
3330.46	0.179472
3340.1	0.182977
3349.75	0.184442
3359.39	0.189063
3369.03	0.190668
3378.67	0.1937
3388.32	0.194252
3397.96	0.191307
3407.6	0.183211
3417.24	0.178143
3426.89	0.169491
3436.53	0.163706
3446.17	0.150513
3455.81	0.140468
3465.45	0.130854
3475.1	0.124637
3484.74	0.115723
3494.38	0.10942
3504.02	0.0985722
3513.67	0.0908458
3523.31	0.0836286
3532.95	0.0762547
3542.59	0.0719549
3552.24	0.0666918
3561.88	0.0599334
3571.52	0.050418
3581.16	0.0437817
3590.8	0.0421508
3600.45	0.0351689
3610.09	0.0336646
3619.73	0.0313206
3629.37	0.0267099
3639.02	0.0250551
3648.66	0.0209792
3658.3	0.0196789
3667.94	0.0215748
3677.59	0.0214476
3687.23	0.0185185
3696.87	0.0143447
3706.51	0.019507
3716.16	0.0176356
3725.8	0.020879
3735.44	0.0182845
3745.08	0.0215632
3754.72	0.021434
3764.37	0.0177344
3774.01	0.0192276
3783.65	0.0209147
3793.29	0.0242741
3802.94	0.0216363
3812.58	0.0172748
3822.22	0.0222
3831.86	0.0219305
3841.51	0.0207199
3851.15	0.0245619
3860.79	0.025246
3870.43	0.019492
3880.07	0.0228789
3889.72	0.0233854
3899.36	0.029851
3909	0.0279349
3918.64	0.0261953
3928.29	0.0237357
3937.93	0.0240887
3947.57	0.0239352
3957.21	0.0269678
3966.86	0.0256169
3976.5	0.0275083
3986.14	0.0275675
3995.78	0.0253991
