Measurement: Infrared, Infrared Data Processed
Mineral: Sulphur
Rruff sample: R040135
Ideal chemistry: S
Locality: Sicily, Italy
Source: University of Arizona Mineral Museum
Description: Yellow fragments
Measured chemistry: S_1.00_
x	intensity
400.157	0.0672414
409.799	0.0663665
419.442	0.0702327
429.084	0.0688108
438.726	0.0692857
448.368	0.07234
458.011	0.0778571
467.653	0.087087
477.296	0.0680815
486.938	0.0747028
496.58	0.0753993
506.223	0.0763471
515.865	0.0787334
525.507	0.078909
535.149	0.0809276
544.792	0.0802647
554.434	0.0821668
564.077	0.0847129
573.719	0.0850906
583.361	0.0867436
593.004	0.0874281
602.646	0.0894689
612.288	0.0897684
621.931	0.0916013
631.573	0.0919232
641.215	0.094183
650.857	0.0947068
660.5	0.0961873
670.142	0.0967164
679.784	0.0981629
689.427	0.098246
699.069	0.100625
708.712	0.100674
718.354	0.102305
727.996	0.102732
737.639	0.103647
747.281	0.104525
756.923	0.106204
766.566	0.107311
776.208	0.108145
785.85	0.110296
795.493	0.111302
805.135	0.11166
814.777	0.113105
824.42	0.115581
834.062	0.117401
843.704	0.118486
853.347	0.117018
862.989	0.119626
872.631	0.12001
882.274	0.120584
891.916	0.121248
901.558	0.124096
911.201	0.124526
920.843	0.125187
930.485	0.127672
940.128	0.128176
949.77	0.128973
959.412	0.129693
969.055	0.130452
978.697	0.132304
988.339	0.133825
997.982	0.134446
1007.62	0.136337
1017.27	0.136954
1026.91	0.139273
1036.55	0.141684
1046.19	0.144745
1055.84	0.146865
1065.48	0.148627
1075.12	0.150556
1084.76	0.151479
1094.4	0.152899
1104.05	0.153298
1113.69	0.155018
1123.33	0.154406
1132.97	0.154075
1142.62	0.155378
1152.26	0.155516
1161.9	0.156143
1171.54	0.156301
1181.19	0.157946
1190.83	0.158328
1200.47	0.158726
1210.11	0.160078
1219.76	0.161126
1229.4	0.161278
1239.04	0.161746
1248.68	0.162651
1258.33	0.164225
1267.97	0.164537
1277.61	0.165479
1287.25	0.16655
1296.89	0.16776
1306.54	0.16888
1316.18	0.16981
1325.82	0.170979
1335.46	0.172563
1345.11	0.173988
1354.75	0.174628
1364.39	0.176371
1374.03	0.177976
1383.67	0.179569
1393.32	0.180898
1402.96	0.182622
1412.6	0.185057
1422.24	0.186317
1431.89	0.187322
1441.53	0.187982
1451.17	0.188179
1460.81	0.189643
1470.46	0.188813
1480.1	0.190247
1489.74	0.191423
1499.38	0.191584
1509.03	0.192771
1518.67	0.193111
1528.31	0.194075
1537.95	0.195086
1547.6	0.195746
1557.24	0.197245
1566.88	0.198376
1576.52	0.199527
1586.16	0.199958
1595.81	0.202022
1605.45	0.202841
1615.09	0.20443
1624.73	0.205959
1634.38	0.206433
1644.02	0.207059
1653.66	0.208658
1663.3	0.209471
1672.94	0.209861
1682.59	0.211685
1692.23	0.212105
1701.87	0.212675
1711.51	0.212829
1721.16	0.215669
1730.8	0.216392
1740.44	0.215586
1750.08	0.217073
1759.73	0.217654
1769.37	0.219708
1779.01	0.219563
1788.65	0.219926
1798.3	0.222792
1807.94	0.222215
1817.58	0.222456
1827.22	0.225439
1836.87	0.224908
1846.51	0.228384
1856.15	0.228359
1865.79	0.229754
1875.43	0.228487
1885.08	0.23052
1894.72	0.23341
1904.36	0.232405
1914	0.231047
1923.65	0.235648
1933.29	0.232793
1942.93	0.232632
1952.57	0.238608
1962.21	0.235247
1971.86	0.232967
1981.5	0.234729
1991.14	0.234006
2000.78	0.233803
2010.43	0.243162
2020.07	0.233427
2029.71	0.240911
2039.35	0.2438
2049	0.245292
2058.64	0.246999
2068.28	0.243498
2077.92	0.248106
2087.57	0.247143
2097.21	0.248441
2106.85	0.255636
2116.49	0.251071
2126.14	0.249157
2135.78	0.249735
2145.42	0.250491
2155.06	0.249849
2164.7	0.253015
2174.35	0.248651
2183.99	0.253563
2193.63	0.260103
2203.27	0.259326
2212.92	0.258184
2222.56	0.258102
2232.2	0.261027
2241.84	0.26417
2251.49	0.264528
2261.13	0.266143
2270.77	0.266883
2280.41	0.270182
2290.05	0.27065
2299.7	0.271619
2309.34	0.272508
2318.98	0.271305
2328.62	0.273493
2338.27	0.271049
2347.91	0.276201
2357.55	0.27345
2367.19	0.273627
2376.84	0.277689
2386.48	0.280287
2396.12	0.282205
2405.76	0.282654
2415.41	0.282062
2425.05	0.286342
2434.69	0.283344
2444.33	0.28574
2453.97	0.28472
2463.62	0.287262
2473.26	0.292297
2482.9	0.287862
2492.54	0.290766
2502.19	0.292216
2511.83	0.292816
2521.47	0.291045
2531.11	0.28792
2540.76	0.292277
2550.4	0.293216
2560.04	0.294988
2569.68	0.29676
2579.32	0.296368
2588.97	0.299811
2598.61	0.299076
2608.25	0.302446
2617.89	0.303814
2627.54	0.302591
2637.18	0.304044
2646.82	0.303602
2656.46	0.30647
2666.11	0.303873
2675.75	0.308856
2685.39	0.306441
2695.03	0.310537
2704.68	0.309818
2714.32	0.309625
2723.96	0.314187
2733.6	0.312619
2743.24	0.311661
2752.89	0.314927
2762.53	0.316755
2772.17	0.316561
2781.81	0.319103
2791.46	0.319709
2801.1	0.318409
2810.74	0.318582
2820.38	0.320874
2830.03	0.321137
2839.67	0.322347
2849.31	0.323404
2858.95	0.323784
2868.59	0.323778
2878.24	0.32319
2887.88	0.323303
2897.52	0.329326
2907.16	0.329187
2916.81	0.328933
2926.45	0.328637
2936.09	0.330388
2945.73	0.333375
2955.38	0.334504
2965.02	0.33077
2974.66	0.333112
2984.3	0.334059
2993.95	0.336556
3003.59	0.331967
3013.23	0.340969
3022.87	0.3384
3032.51	0.338945
3042.16	0.340315
3051.8	0.344858
3061.44	0.338754
3071.08	0.338596
3080.73	0.346071
3090.37	0.339889
3100.01	0.343894
3109.65	0.343675
3119.3	0.347657
3128.94	0.343813
3138.58	0.344042
3148.22	0.342205
3157.86	0.345571
3167.51	0.348339
3177.15	0.348978
3186.79	0.350253
3196.43	0.350466
3206.08	0.352621
3215.72	0.349495
3225.36	0.352358
3235	0.353683
3244.65	0.354424
3254.29	0.356518
3263.93	0.357119
3273.57	0.352821
3283.22	0.355555
3292.86	0.352147
3302.5	0.352083
3312.14	0.358078
3321.78	0.353815
3331.43	0.355783
3341.07	0.364114
3350.71	0.358392
3360.35	0.355988
3370	0.354722
3379.64	0.36116
3389.28	0.366615
3398.92	0.364458
3408.57	0.366402
3418.21	0.365376
3427.85	0.361819
3437.49	0.359049
3447.13	0.366729
3456.78	0.361245
3466.42	0.37248
3476.06	0.366196
3485.7	0.366689
3495.35	0.360075
3504.99	0.368063
3514.63	0.365632
3524.27	0.371197
3533.92	0.370992
3543.56	0.36861
3553.2	0.370601
3562.84	0.374694
3572.49	0.374116
3582.13	0.36105
3591.77	0.374814
3601.41	0.372215
3611.05	0.364592
3620.7	0.363572
3630.34	0.381863
3639.98	0.37927
3649.62	0.381822
3659.27	0.382087
3668.91	0.37923
3678.55	0.380036
3688.19	0.385908
3697.84	0.383346
3707.48	0.387156
3717.12	0.378348
3726.76	0.378808
3736.4	0.388483
3746.05	0.391698
3755.69	0.396194
3765.33	0.378961
3774.97	0.381763
3784.62	0.397682
3794.26	0.387146
3803.9	0.387328
3813.54	0.392074
3823.19	0.382769
3832.83	0.390272
3842.47	0.393318
3852.11	0.396336
3861.76	0.398287
3871.4	0.389433
3881.04	0.392116
3890.68	0.381945
3900.32	0.390789
3909.97	0.398627
3919.61	0.394008
3929.25	0.385638
3938.89	0.395434
3948.54	0.396042
3958.18	0.38869
3967.82	0.399215
3977.46	0.396278
3987.11	0.391116
3996.75	0.410286
