Measurement: Infrared, Infrared Data Processed
Mineral: Thomsonite-Ca
Rruff sample: R050103
Ideal chemistry: NaCa_2_(Al_5_Si_5_)O_20_6H_2_O
Locality: Seeberg, Bohemia, Czech Republic
Source: Rock Currier
Description: Colorless prismatic crystals
Measured chemistry: Na_1.00_(Ca_0.92_Sr_0.08_)_2_(Al_5.00_Si_5.00_)O_20_Â·6H_2_O
x	intensity
50.1401	0.0120498
52.0686	0.00839863
53.9971	0.0070937
55.9255	0.00614055
57.854	0.0100614
59.7825	0.0129155
61.7109	0.012131
63.6394	0.0131488
65.5679	0.0121419
67.4963	0.0117225
69.4248	0.0129779
71.3533	0.0139225
73.2817	0.0120357
75.2102	0.0108314
77.1387	0.0120727
79.0671	0.0133963
80.9956	0.0141353
82.9241	0.0136497
84.8525	0.0130743
86.781	0.0133305
88.7095	0.0146722
90.6379	0.0151814
92.5664	0.0157135
94.4948	0.0163435
96.4233	0.0163818
98.3518	0.0158132
100.28	0.0160133
102.209	0.0165121
104.137	0.0169045
106.066	0.0169705
107.994	0.0169798
109.923	0.0165938
111.851	0.0171926
113.779	0.0177629
115.708	0.0178964
117.636	0.0178151
119.565	0.0187445
121.493	0.0195647
123.422	0.0196576
125.35	0.0195335
127.279	0.0196483
129.207	0.020186
131.136	0.0208079
133.064	0.0210825
134.993	0.0214138
136.921	0.0218249
138.85	0.0229269
140.778	0.0231717
142.707	0.0227949
144.635	0.0225304
146.563	0.0225159
148.492	0.022817
150.42	0.0233623
152.349	0.0236552
154.277	0.0234607
156.206	0.0233333
158.134	0.0234082
160.063	0.0228273
161.991	0.0223686
163.92	0.0223162
165.848	0.0226655
167.777	0.0227739
169.705	0.0228594
171.633	0.022399
173.562	0.0222462
175.49	0.0217996
177.419	0.0213828
179.347	0.0205847
181.276	0.0197806
183.204	0.0196075
185.133	0.0196667
187.061	0.0197687
188.99	0.0202506
190.918	0.020097
192.847	0.0200151
194.775	0.0204182
196.704	0.0207095
198.632	0.0210094
200.56	0.0215278
202.489	0.0221376
204.417	0.0224773
206.346	0.0225465
208.274	0.0229892
210.203	0.0232552
212.131	0.0236205
214.06	0.0241956
215.988	0.0245828
217.917	0.024708
219.845	0.0247591
221.774	0.0246945
223.702	0.0247373
225.631	0.0248148
227.559	0.0248996
229.488	0.0244909
231.416	0.023969
233.344	0.0234953
235.273	0.0230662
237.201	0.0226
239.13	0.0223201
241.058	0.02184
242.987	0.0219524
244.915	0.0222674
246.844	0.0229685
248.772	0.0237614
250.701	0.0241207
252.629	0.024608
254.558	0.0251815
256.486	0.0255524
258.414	0.0261753
260.343	0.0266516
262.271	0.0272185
264.2	0.028061
266.128	0.0285095
268.057	0.028666
269.985	0.0289873
271.914	0.0291706
273.842	0.0287414
275.771	0.0284958
277.699	0.0288448
279.628	0.029133
281.556	0.0295506
283.485	0.0301787
285.413	0.030644
287.341	0.0309175
289.27	0.0315538
291.198	0.0323088
293.127	0.0332559
295.055	0.0338321
296.984	0.0340241
298.912	0.03387
300.841	0.0336348
302.769	0.0333384
304.698	0.0329117
306.626	0.0329108
308.555	0.0329661
310.483	0.0327622
312.411	0.0328239
314.34	0.0330436
316.269	0.0333285
318.197	0.0331734
320.125	0.0337309
322.054	0.0347596
323.982	0.0353723
325.911	0.0362022
327.839	0.0374089
329.768	0.0381524
331.696	0.038384
333.625	0.0382084
335.553	0.0375022
337.482	0.0367794
339.41	0.036248
341.339	0.0358035
343.267	0.0362895
345.195	0.0373608
347.124	0.0381438
349.052	0.0388733
350.981	0.0398568
352.909	0.0403293
354.838	0.0405913
356.766	0.0405924
358.695	0.0402817
360.623	0.0402136
362.552	0.0407436
364.48	0.0414234
366.409	0.0422904
368.337	0.0429898
370.265	0.0438377
372.194	0.0444557
374.122	0.0445086
376.051	0.0436499
377.979	0.0424831
379.908	0.0412658
381.836	0.0403072
383.765	0.0393276
385.693	0.0384812
387.622	0.0380777
389.55	0.0382489
391.479	0.0387874
393.407	0.0395849
395.336	0.0403417
397.264	0.0408393
399.192	0.0413473
401.121	0.0417014
403.049	0.0421915
404.978	0.0426592
406.906	0.043091
408.835	0.0435339
410.763	0.0434855
412.692	0.0430803
414.62	0.0428434
416.549	0.0425002
418.477	0.0418833
420.406	0.0407663
422.334	0.0395708
424.262	0.0386171
426.191	0.0382011
428.12	0.0385193
430.048	0.0389948
431.976	0.0394667
433.905	0.0393579
435.833	0.0386471
437.762	0.0374705
439.69	0.0359948
441.619	0.0343134
443.547	0.0323876
445.476	0.0304258
447.404	0.0285888
449.333	0.0271311
451.261	0.0263848
453.19	0.0260338
455.118	0.0260357
457.046	0.0265773
458.975	0.0271942
460.903	0.0274848
462.832	0.0280827
464.76	0.0282437
466.689	0.028303
468.617	0.0284948
470.546	0.028459
472.474	0.0285761
474.403	0.028865
476.331	0.0291607
478.26	0.0292237
480.188	0.029304
482.116	0.0296192
484.045	0.0297368
485.974	0.0298606
487.902	0.0298391
489.83	0.0301295
491.759	0.030763
493.687	0.0315492
495.616	0.0321774
497.544	0.0327984
499.473	0.0335451
501.401	0.0343057
503.33	0.0350698
505.258	0.0359787
507.187	0.0362741
509.115	0.0359315
511.043	0.0355767
512.972	0.035349
514.9	0.035341
516.829	0.0354823
518.757	0.0357716
520.686	0.0361453
522.614	0.0365017
524.543	0.0369662
526.471	0.0371534
528.4	0.0375397
530.328	0.0376239
532.257	0.0376718
534.185	0.0378141
536.114	0.0381658
538.042	0.0386633
539.971	0.0387035
541.899	0.0387056
543.827	0.0393051
545.756	0.0391213
547.684	0.0384487
549.613	0.0383234
551.541	0.0388403
553.47	0.0392851
555.398	0.0393286
557.327	0.0395234
559.255	0.0401731
561.184	0.0406637
563.112	0.0409992
565.041	0.0414872
566.969	0.0420125
568.898	0.0423287
570.826	0.0431492
572.755	0.0437922
574.683	0.044273
576.611	0.0447939
578.54	0.0452728
580.468	0.0454904
582.397	0.0454797
584.325	0.0448791
586.254	0.0443774
588.182	0.0437826
590.111	0.0427327
592.039	0.0418417
593.968	0.0409672
595.896	0.0396461
597.824	0.0388337
599.753	0.0383606
601.682	0.0378373
603.61	0.0376888
605.538	0.0376472
607.467	0.0374876
609.395	0.037623
611.324	0.0379262
613.252	0.0386672
615.181	0.0399186
617.109	0.0413481
619.038	0.0428889
620.966	0.0442129
622.894	0.0449956
624.823	0.0452048
626.751	0.0457499
628.68	0.0467638
630.608	0.0473903
632.537	0.047339
634.465	0.0468124
636.394	0.0459827
638.322	0.044941
640.251	0.0436021
642.179	0.0420949
644.108	0.0408189
646.036	0.0397344
647.965	0.0389077
649.893	0.038253
651.822	0.0382515
653.75	0.0385869
655.678	0.0392598
657.607	0.0401188
659.535	0.0405519
661.464	0.0405867
663.392	0.0402492
665.321	0.0399042
667.249	0.0397498
669.178	0.0389542
671.106	0.0380425
673.035	0.0371428
674.963	0.0363462
676.892	0.0356696
678.82	0.0351246
680.749	0.0344549
682.677	0.033974
684.606	0.0341986
686.534	0.0346412
688.462	0.0352009
690.391	0.0351967
692.319	0.0351908
694.248	0.0358349
696.176	0.0370658
698.105	0.0373914
700.033	0.037528
