Measurement: Infrared, Infrared Data Processed
Mineral: Topaz
Rruff sample: R060024
Ideal chemistry: Al_2_SiO_4_F_2_
Locality: Antonio Peireira Topaz mine, Minas Gerais, Brazil, GPS coordinates: 20 18 18 S, 43 28 37 W, 2697 ASL
Source: Eric Van Valkenburg
Description: Smoky brown single crystal
Measured chemistry: Al_2.00_Si_1.00_O_4_(F_0.68_(OH)_0.32_)_2_
x	intensity
399.193	0.207658
408.835	0.196291
418.477	0.213509
428.12	0.218006
437.762	0.223395
447.404	0.223808
457.047	0.206405
466.689	0.174928
476.331	0.179253
485.974	0.157958
495.616	0.148123
505.258	0.150385
514.901	0.144326
524.543	0.124021
534.185	0.113916
543.828	0.110894
553.47	0.11889
563.112	0.109877
572.755	0.105825
582.397	0.12991
592.039	0.173648
601.682	0.206699
611.324	0.212659
620.966	0.187262
630.609	0.153621
640.251	0.123116
649.893	0.0966232
659.536	0.0715653
669.178	0.0522143
678.82	0.0400572
688.463	0.0357511
698.105	0.0358655
707.747	0.0290478
717.39	0.0216528
727.032	0.0219503
736.674	0.0274876
746.317	0.0398116
755.959	0.0531033
765.601	0.0716453
775.244	0.0756936
784.886	0.0974263
794.528	0.128003
804.171	0.163589
813.813	0.196039
823.455	0.221735
833.098	0.233586
842.74	0.231496
852.382	0.228346
862.025	0.224448
871.667	0.216728
881.309	0.198866
890.952	0.182535
900.594	0.1666
910.236	0.150336
919.879	0.133931
929.521	0.12229
939.163	0.104164
948.806	0.08502
958.448	0.0667819
968.09	0.0509037
977.733	0.0440939
987.375	0.0480501
997.017	0.0468191
1006.66	0.0365471
1016.3	0.028411
1025.94	0.0223983
1035.59	0.016646
1045.23	0.0113648
1054.87	0.00814859
1064.51	0.00658635
1074.16	0.00556161
1083.8	0.00489269
1093.44	0.00445171
1103.08	0.00442009
1112.72	0.00444771
1122.37	0.00560982
1132.01	0.00782122
1141.65	0.0162489
1151.3	0.0512402
1160.94	0.0618662
1170.58	0.0357763
1180.22	0.0106748
1189.86	0.0037706
1199.51	0.00266922
1209.15	0.00162103
1218.79	0.000289844
1228.43	-0.000305791
1238.08	-0.000543991
1247.72	-0.000836895
1257.36	-0.00104462
1267	-0.00107724
1276.64	-0.0010797
1286.29	-0.000917255
1295.93	-0.000802882
1305.57	-0.000647128
1315.21	-0.00106166
1324.86	-0.000853802
1334.5	-0.0010211
1344.14	-0.000899127
1353.78	-0.000885224
1363.43	-0.00123475
1373.07	-0.00109212
1382.71	-0.000857884
1392.35	-0.000758411
1401.99	-0.000516416
1411.64	-0.00026825
1421.28	-0.000617763
1430.92	0.000261879
1440.57	0.000864766
1450.21	0.00137886
1459.85	0.00176994
1469.49	0.00253487
1479.13	0.00302807
1488.78	0.00166548
1498.42	0.00107255
1508.06	-0.00117435
1517.7	-0.00032652
1527.35	-0.000309076
1536.99	-0.000954115
1546.63	-0.000200587
1556.27	-0.00214511
1565.91	0.000175527
1575.56	-0.00209021
1585.2	0.000206643
1594.84	0.000214487
1604.48	0.000303626
1614.13	-0.000349784
1623.77	-0.000548341
1633.41	-0.000543377
1643.05	-9.47754e-05
1652.7	-0.00524823
1662.34	-0.000570029
1671.98	-0.000546412
1681.62	-0.000791744
1691.27	0.000473512
1700.91	-0.00314087
1710.55	-2.42835e-05
1720.19	-0.000700126
1729.84	-0.000423136
1739.48	-0.00178106
1749.12	-0.00210355
1758.76	-0.000363516
1768.4	-0.000581459
1778.05	0.000402538
1787.69	0.000726609
1797.33	0.00024306
1806.97	0.000636833
1816.62	0.000467937
1826.26	0.000224624
1835.9	0.000354485
1845.54	-0.000323729
1855.18	0.00068455
1864.83	0.000407707
1874.47	0.00029455
1884.11	0.000414941
1893.75	0.000332044
1903.4	0.000419145
1913.04	0.000237391
1922.68	-2.84067e-05
1932.32	0.000581803
1941.97	-0.000158749
1951.61	-9.77954e-05
1961.25	0.000586608
1970.89	-0.000252249
1980.54	0.00159994
1990.18	2.97697e-05
1999.82	0.0012907
2009.46	0.00159605
2019.11	0.00108482
2028.75	0.00144382
2038.39	0.001856
2048.03	0.00202795
2057.67	0.00045683
2067.32	0.00129925
2076.96	0.00164133
2086.6	0.00196642
2096.24	0.00148202
2105.89	0.00216794
2115.53	0.00148492
2125.17	0.0015507
2134.81	0.000130143
2144.45	0.000518915
2154.1	0.000141614
2163.74	0.00214497
2173.38	0.00195035
2183.02	0.00313271
2192.67	0.00266144
2202.31	0.00217727
2211.95	0.00285059
2221.59	0.00226587
2231.24	0.0020223
2240.88	0.00313069
2250.52	0.00273783
2260.16	0.00262614
2269.8	0.00242544
2279.45	0.00309438
2289.09	0.00276806
2298.73	0.00207461
2308.38	0.00178898
2318.02	0.00283201
2327.66	0.00338639
2337.3	0.0033527
2346.94	0.00292253
2356.59	0.00401753
2366.23	0.00371166
2375.87	0.00188821
2385.51	0.00116147
2395.16	0.00132869
2404.8	0.00142084
2414.44	0.00150136
2424.08	0.00157532
2433.72	0.00143219
2443.37	0.00155235
2453.01	0.00160895
2462.65	0.00177547
2472.29	0.00123299
2481.94	0.0019314
2491.58	0.00184217
2501.22	0.00137292
2510.86	0.00158791
2520.51	0.0010819
2530.15	0.00141915
2539.79	0.00150102
2549.43	0.00160571
2559.07	0.00175872
2568.72	0.00156508
2578.36	0.00163771
2588	0.00173979
2597.64	0.00178476
2607.29	0.0015285
2616.93	0.00254989
2626.57	0.00234617
2636.21	0.0023473
2645.86	0.002568
2655.5	0.00251912
2665.14	0.00221101
2674.78	0.00214705
2684.43	0.00208436
2694.07	0.00198335
2703.71	0.00202299
2713.35	0.00223713
2722.99	0.00215285
2732.64	0.00243921
2742.28	0.00227136
2751.92	0.0022394
2761.56	0.00194456
2771.21	0.00196475
2780.85	0.00197857
2790.49	0.0022441
2800.13	0.00174072
2809.78	0.00211846
2819.42	0.00218841
2829.06	0.00235008
2838.7	0.00221908
2848.34	0.000847677
2857.99	0.0014651
2867.63	0.00155299
2877.27	0.00178273
2886.91	0.00166867
2896.56	0.00160861
2906.2	0.00155205
2915.84	7.55716e-05
2925.48	0.000291914
2935.13	0.000684649
2944.77	0.000980682
2954.41	0.00102092
2964.05	0.000808621
2973.7	0.000903939
2983.34	0.000828432
2992.98	0.0012284
3002.62	0.000669655
3012.26	0.0014859
3021.91	0.00060655
3031.55	0.000665272
3041.19	0.00031842
3050.83	0.000917742
3060.48	0.000790469
3070.12	0.000950043
3079.76	0.00108804
3089.4	0.000586189
3099.05	0.00103457
3108.69	0.000642342
3118.33	0.000690156
3127.97	0.000523612
3137.61	0.00114512
3147.26	0.000814941
3156.9	0.000905275
3166.54	0.000858722
3176.18	0.000491384
3185.83	0.00084817
3195.47	0.00030327
3205.11	0.0004456
3214.75	0.00112074
3224.4	0.000695448
3234.04	0.000759422
3243.68	0.00137587
3253.32	0.000370747
3262.97	0.000592293
3272.61	0.000335601
3282.25	8.04871e-06
3291.89	0.000932145
3301.53	0.00020237
3311.18	7.57267e-05
3320.82	0.000207389
3330.46	0.000605848
3340.1	3.08151e-05
3349.75	-0.000113544
3359.39	0.000323317
3369.03	0.000129473
3378.67	5.8812e-05
3388.32	-3.49366e-05
3397.96	-9.56645e-05
3407.6	-0.000654285
3417.24	-0.000346176
3426.89	-0.000972782
3436.53	-0.000403559
3446.17	-0.000861395
3455.81	-0.00068361
3465.45	-6.62668e-05
3475.1	-0.000551376
3484.74	-0.00085025
3494.38	-0.000847794
3504.02	-0.00144022
3513.67	-0.00071817
3523.31	-0.00144965
3532.95	-0.000593267
3542.59	-0.00137266
3552.24	-0.00119709
3561.88	-0.00134732
3571.52	-0.000857777
3581.16	-0.00122061
3590.8	-0.00141724
3600.45	0.000459638
3610.09	0.000437374
3619.73	0.00496337
3629.37	0.0150317
3639.02	0.0282029
3648.66	0.0132707
3658.3	-0.0036924
3667.94	-0.00681707
3677.59	-0.00805575
3687.23	-0.00902975
3696.87	-0.00570743
3706.51	-0.0050636
3716.16	-0.00508319
3725.8	-0.00697925
3735.44	-0.00881787
3745.08	-0.0127393
3754.72	-0.00610522
3764.37	-0.00529114
3774.01	-0.00484809
3783.65	-0.0051437
3793.29	-0.0051122
3802.94	-0.00778822
3812.58	-0.00534708
3822.22	-0.00796481
3831.86	-0.00675042
3841.51	-0.00673974
3851.15	-0.0109549
3860.79	-0.00589324
3870.43	-0.00909025
3880.07	-0.0074556
3889.72	-0.00657536
3899.36	-0.0073712
3909	-0.00497984
3918.64	-0.00502373
3928.29	-0.00623393
3937.93	-0.0059181
3947.57	-0.00556354
3957.21	-0.00528553
3966.86	-0.0056544
3976.5	-0.00568415
3986.14	-0.00543974
3995.78	-0.00641265
