Measurement: Infrared, Infrared Data Processed
Mineral: Triphylite
Rruff sample: R050257
Ideal chemistry: LiFe^2+^PO_4_
Locality: Palermo mine, North Groton, Grafton County, New Hampshire, USA
Source: Marcus Origlieri
Description: Dark gray massive
Measured chemistry: Li_1.00_(Fe^2+^_0.73_Mn^2+^_0.19_Mg_0.08_)_Î£=1_P_1.00_O_4_
x	intensity
399.193	0.0770637
408.835	0.0690844
418.477	0.0607056
428.12	0.0619291
437.762	0.0668596
447.404	0.0791041
457.047	0.101822
466.689	0.118759
476.331	0.105068
485.974	0.094531
495.616	0.0928813
505.258	0.08329
514.901	0.0755534
524.543	0.0675712
534.185	0.0654729
543.828	0.0895073
553.47	0.0879449
563.112	0.0553474
572.755	0.0665267
582.397	0.0603196
592.039	0.0296329
601.682	0.0205604
611.324	0.0201912
620.966	0.0325359
630.609	0.0767313
640.251	0.0913613
649.893	0.0604617
659.536	0.0206159
669.178	0.011166
678.82	0.0094655
688.463	0.0086812
698.105	0.00850179
707.747	0.00907372
717.39	0.00984792
727.032	0.00984599
736.674	0.0103567
746.317	0.0111602
755.959	0.011857
765.601	0.0131079
775.244	0.0142521
784.886	0.0159328
794.528	0.0174599
804.171	0.0191574
813.813	0.0212948
823.455	0.0240677
833.098	0.0273895
842.74	0.0309336
852.382	0.0367172
862.025	0.0418171
871.667	0.0504782
881.309	0.0533396
890.952	0.0607991
900.594	0.0721603
910.236	0.0868736
919.879	0.104284
929.521	0.125168
939.163	0.142733
948.806	0.143908
958.448	0.152329
968.09	0.154333
977.733	0.151774
987.375	0.149659
997.017	0.145042
1006.66	0.136851
1016.3	0.131872
1025.94	0.136112
1035.59	0.145664
1045.23	0.149191
1054.87	0.149329
1064.51	0.141492
1074.16	0.124138
1083.8	0.103428
1093.44	0.107642
1103.08	0.0887969
1112.72	0.061081
1122.37	0.0371017
1132.01	0.0390602
1141.65	0.058766
1151.3	0.0358879
1160.94	0.017182
1170.58	0.00838868
1180.22	0.00531863
1189.86	0.00407557
1199.51	0.00315804
1209.15	0.00275682
1218.79	0.00249649
1228.43	0.0020912
1238.08	0.00190215
1247.72	0.00192046
1257.36	0.00187253
1267	0.00191691
1276.64	0.00219685
1286.29	0.00219193
1295.93	0.00215975
1305.57	0.00239145
1315.21	0.00234291
1324.86	0.00268004
1334.5	0.00303024
1344.14	0.00318469
1353.78	0.00346989
1363.43	0.00395334
1373.07	0.00452444
1382.71	0.00529435
1392.35	0.00646414
1401.99	0.00849469
1411.64	0.0145199
1421.28	0.00978945
1430.92	0.0104196
1440.57	0.0129803
1450.21	0.0169946
1459.85	0.0212431
1469.49	0.0210032
1479.13	0.0215947
1488.78	0.0234648
1498.42	0.0196272
1508.06	0.0165315
1517.7	0.0136516
1527.35	0.0168657
1536.99	0.0157927
1546.63	0.0116389
1556.27	0.00836321
1565.91	0.00674332
1575.56	0.00639548
1585.2	0.00608667
1594.84	0.00577188
1604.48	0.00556571
1614.13	0.00538369
1623.77	0.00545177
1633.41	0.00521001
1643.05	0.00507887
1652.7	0.0050522
1662.34	0.00505977
1671.98	0.00519764
1681.62	0.00514536
1691.27	0.00483095
1700.91	0.0050908
1710.55	0.00483623
1720.19	0.00486658
1729.84	0.00452155
1739.48	0.00443252
1749.12	0.00456721
1758.76	0.00491292
1768.4	0.00499665
1778.05	0.00484841
1787.69	0.00522105
1797.33	0.0052098
1806.97	0.00526014
1816.62	0.00478164
1826.26	0.00451041
1835.9	0.00425791
1845.54	0.00442081
1855.18	0.00425306
1864.83	0.00449995
1874.47	0.00393986
1884.11	0.00370923
1893.75	0.00363051
1903.4	0.00422136
1913.04	0.00413087
1922.68	0.00455134
1932.32	0.00416679
1941.97	0.00405084
1951.61	0.0040322
1961.25	0.00415686
1970.89	0.0031507
1980.54	0.00286976
1990.18	0.00376286
1999.82	0.00410481
2009.46	0.00338837
2019.11	0.00396774
2028.75	0.0043429
2038.39	0.00331193
2048.03	0.00455535
2057.67	0.0037586
2067.32	0.00387484
2076.96	0.00408165
2086.6	0.00423106
2096.24	0.0042011
2105.89	0.00473279
2115.53	0.00366831
2125.17	0.00464735
2134.81	0.00405221
2144.45	0.00549337
2154.1	0.00509472
2163.74	0.00457267
2173.38	0.0061618
2183.02	0.00618924
2192.67	0.00498551
2202.31	0.00632566
2211.95	0.00726321
2221.59	0.00732882
2231.24	0.00765608
2240.88	0.00860967
2250.52	0.0081696
2260.16	0.0073799
2269.8	0.00721612
2279.45	0.00709946
2289.09	0.00662982
2298.73	0.00681859
2308.38	0.00694013
2318.02	0.00761586
2327.66	0.00730063
2337.3	0.00789623
2346.94	0.00757632
2356.59	0.00792523
2366.23	0.00780125
2375.87	0.00793534
2385.51	0.00776962
2395.16	0.00801597
2404.8	0.00728062
2414.44	0.00791077
2424.08	0.00814933
2433.72	0.00757997
2443.37	0.00765023
2453.01	0.00771629
2462.65	0.00754852
2472.29	0.00790563
2481.94	0.00807401
2491.58	0.00760591
2501.22	0.00782584
2510.86	0.00798257
2520.51	0.00768876
2530.15	0.00804353
2539.79	0.0084527
2549.43	0.00824261
2559.07	0.0077568
2568.72	0.00892276
2578.36	0.00827104
2588	0.00788038
2597.64	0.00817435
2607.29	0.00856365
2616.93	0.00856027
2626.57	0.00831754
2636.21	0.00882837
2645.86	0.0087533
2655.5	0.00865256
2665.14	0.00878406
2674.78	0.00893995
2684.43	0.00902926
2694.07	0.00877054
2703.71	0.00909321
2713.35	0.00922339
2722.99	0.00925361
2732.64	0.00918536
2742.28	0.00904912
2751.92	0.0092999
2761.56	0.00936125
2771.21	0.00893524
2780.85	0.00918522
2790.49	0.00950602
2800.13	0.00939946
2809.78	0.0098952
2819.42	0.00945754
2829.06	0.00936436
2838.7	0.00888339
2848.34	0.00717223
2857.99	0.00706595
2867.63	0.00900068
2877.27	0.00888723
2886.91	0.00868989
2896.56	0.00832058
2906.2	0.00765494
2915.84	0.00553042
2925.48	0.00474204
2935.13	0.00670481
2944.77	0.00795067
2954.41	0.00827493
2964.05	0.00828457
2973.7	0.00882365
2983.34	0.009519
2992.98	0.00926674
3002.62	0.00915937
3012.26	0.0101499
3021.91	0.0099697
3031.55	0.0104225
3041.19	0.00993738
3050.83	0.0100691
3060.48	0.0103959
3070.12	0.0106793
3079.76	0.0105773
3089.4	0.0101998
3099.05	0.0106903
3108.69	0.0107947
3118.33	0.0113474
3127.97	0.0108966
3137.61	0.0116287
3147.26	0.0117082
3156.9	0.0114676
3166.54	0.0114893
3176.18	0.0119589
3185.83	0.0118074
3195.47	0.0121004
3205.11	0.0118763
3214.75	0.0116352
3224.4	0.01163
3234.04	0.0112459
3243.68	0.0119502
3253.32	0.0119228
3262.97	0.0121945
3272.61	0.0124855
3282.25	0.0121107
3291.89	0.0121444
3301.53	0.0117504
3311.18	0.0117671
3320.82	0.0112306
3330.46	0.0117955
3340.1	0.0120629
3349.75	0.0116288
3359.39	0.0120615
3369.03	0.0116603
3378.67	0.0127764
3388.32	0.0121039
3397.96	0.0119397
3407.6	0.0121198
3417.24	0.0120007
3426.89	0.0118777
3436.53	0.0121406
3446.17	0.0124709
3455.81	0.0116605
3465.45	0.0122006
3475.1	0.0118297
3484.74	0.0115048
3494.38	0.0115609
3504.02	0.0122988
3513.67	0.0120963
3523.31	0.0115016
3532.95	0.0114666
3542.59	0.0116844
3552.24	0.0110612
3561.88	0.0111149
3571.52	0.0105177
3581.16	0.0113697
3590.8	0.0110135
3600.45	0.0104206
3610.09	0.0106084
3619.73	0.0107814
3629.37	0.0110849
3639.02	0.010888
3648.66	0.0112699
3658.3	0.0113998
3667.94	0.0114867
3677.59	0.0116168
3687.23	0.0108347
3696.87	0.0103058
3706.51	0.0122244
3716.16	0.0113605
3725.8	0.0109799
3735.44	0.0112197
3745.08	0.011497
3754.72	0.0110884
3764.37	0.0119125
3774.01	0.0109534
3783.65	0.011827
3793.29	0.0114508
3802.94	0.0122647
3812.58	0.011683
3822.22	0.01188
3831.86	0.0112376
3841.51	0.0121505
3851.15	0.0127017
3860.79	0.012117
3870.43	0.01113
3880.07	0.0121477
3889.72	0.0123431
3899.36	0.0118209
3909	0.0112999
3918.64	0.0116685
3928.29	0.0125798
3937.93	0.0106893
3947.57	0.0108807
3957.21	0.0108015
3966.86	0.0117694
3976.5	0.0124308
3986.14	0.0111592
3995.78	0.0113452
