Measurement: Infrared, Infrared Data Processed
Mineral: Trona
Rruff sample: R050228
Ideal chemistry: Na_3_(HCO_3_)(CO_3_)2H_2_O
Locality: Stauffer mine, Green River, Wyoming, USA
Source: Marcus Origlieri
Description: Aggregate of pale yellowish brown flattened crystals
Measured chemistry: Na_3.00_(CO_3_)(HCO_3_)Â·2H_2_O ; CO2 and H not measured but estimated by stoichiometry. The lighter inclusion is dolomite.
x	intensity
50.1401	0.0278158
52.0686	0.020913
53.9971	0.0223626
55.9255	0.0134811
57.854	0.0137266
59.7825	0.0161753
61.7109	0.0158952
63.6394	0.0190799
65.5679	0.0189776
67.4963	0.0184807
69.4248	0.0199912
71.3533	0.0193559
73.2817	0.0189032
75.2102	0.0208406
77.1387	0.0202028
79.0671	0.0196399
80.9956	0.0187004
82.9241	0.0184387
84.8525	0.0189522
86.781	0.018037
88.7095	0.0174709
90.6379	0.0187447
92.5664	0.0200036
94.4948	0.0220348
96.4233	0.0231871
98.3518	0.0231692
100.28	0.0221466
102.209	0.0227671
104.137	0.0230715
106.066	0.0233804
107.994	0.0248513
109.923	0.0260188
111.851	0.0259315
113.779	0.0268077
115.708	0.0281758
117.636	0.0288476
119.565	0.0300407
121.493	0.0325381
123.422	0.0344127
125.35	0.0348837
127.279	0.0355092
129.207	0.0363211
131.136	0.0358138
133.064	0.0348704
134.993	0.0341792
136.921	0.033112
138.85	0.0323056
140.778	0.0327861
142.707	0.0347517
144.635	0.0370202
146.563	0.0383749
148.492	0.0380664
150.42	0.0373626
152.349	0.0393365
154.277	0.0411633
156.206	0.0415071
158.134	0.0417991
160.063	0.0439983
161.991	0.0444333
163.92	0.0440586
165.848	0.0434669
167.777	0.0428903
169.705	0.0426564
171.633	0.0431578
173.562	0.043723
175.49	0.043228
177.419	0.0422552
179.347	0.0430292
181.276	0.0434595
183.204	0.0441273
185.133	0.0450897
187.061	0.0451357
188.99	0.0455778
190.918	0.0469636
192.847	0.0475187
194.775	0.0489715
196.704	0.0513779
198.632	0.0529359
200.56	0.0526697
202.489	0.0516075
204.417	0.0529443
206.346	0.0529653
208.274	0.0509488
210.203	0.0507753
212.131	0.0503666
214.06	0.0491808
215.988	0.0495435
217.917	0.0497892
219.845	0.0488303
221.774	0.0473292
223.702	0.0471341
225.631	0.0468907
227.559	0.0470899
229.488	0.0496069
231.416	0.0508246
233.344	0.0512398
235.273	0.0511612
237.201	0.0506822
239.13	0.0499877
241.058	0.0487829
242.987	0.0472801
244.915	0.0451061
246.844	0.0437382
248.772	0.0446071
250.701	0.046038
252.629	0.0450532
254.558	0.0446446
256.486	0.0462675
258.414	0.0466859
260.343	0.0465452
262.271	0.0463918
264.2	0.0455779
266.128	0.0443361
268.057	0.0440231
269.985	0.0434616
271.914	0.0423784
273.842	0.0412855
275.771	0.0398113
277.699	0.036793
279.628	0.0350726
281.556	0.0348212
283.485	0.0353711
285.413	0.0357536
287.341	0.0345898
289.27	0.0329829
291.198	0.0330311
293.127	0.0334956
295.055	0.0332093
296.984	0.0325963
298.912	0.031825
300.841	0.0302079
302.769	0.0283683
304.698	0.0298897
306.626	0.0308006
308.555	0.0308664
310.483	0.0307417
312.411	0.0305442
314.34	0.0300973
316.269	0.0302544
318.197	0.0304855
320.125	0.0305105
322.054	0.0297231
323.982	0.0287714
325.911	0.0289562
327.839	0.0288776
329.768	0.0305649
331.696	0.031696
333.625	0.0314197
335.553	0.0312006
337.482	0.0320202
339.41	0.0323882
341.339	0.0327797
343.267	0.0332064
345.195	0.033382
347.124	0.0334111
349.052	0.03268
350.981	0.0322287
352.909	0.0323878
354.838	0.0330304
356.766	0.0341578
358.695	0.0349926
360.623	0.0357926
362.552	0.0362501
364.48	0.0364872
366.409	0.0368543
368.337	0.0371562
370.265	0.0372237
372.194	0.0374339
374.122	0.0371291
376.051	0.0375149
377.979	0.0388134
379.908	0.039539
381.836	0.0399562
383.765	0.0400872
385.693	0.0405135
387.622	0.0412493
389.55	0.041665
391.479	0.0419631
393.407	0.0418985
395.336	0.0417023
397.264	0.041634
399.192	0.0424634
401.121	0.0438333
403.049	0.0444757
404.978	0.0450114
406.906	0.045518
408.835	0.0459167
410.763	0.0463465
412.692	0.046957
414.62	0.0477592
416.549	0.0478734
418.477	0.0473106
420.406	0.0481934
422.334	0.0493873
424.262	0.0500192
426.191	0.0509067
428.12	0.0518641
430.048	0.0525332
431.976	0.0528497
433.905	0.0532761
435.833	0.0536449
437.762	0.0541583
439.69	0.0549501
441.619	0.0554777
443.547	0.0560743
445.476	0.0565909
447.404	0.0570495
449.333	0.0577152
451.261	0.0586291
453.19	0.0592341
455.118	0.0593905
457.046	0.0595911
458.975	0.0604444
460.903	0.0612183
462.832	0.061363
464.76	0.0618331
466.689	0.0622494
468.617	0.0628136
470.546	0.063421
472.474	0.0638723
474.403	0.0644497
476.331	0.0649653
478.26	0.065539
480.188	0.0660952
482.116	0.0666409
484.045	0.0673411
485.974	0.0680216
487.902	0.0683235
489.83	0.0685427
491.759	0.0692326
493.687	0.0699696
495.616	0.0705975
497.544	0.0709928
499.473	0.071615
501.401	0.0722217
503.33	0.0731405
505.258	0.0738768
507.187	0.0741286
509.115	0.0747062
511.043	0.0754227
512.972	0.0760217
514.9	0.0768409
516.829	0.077482
518.757	0.0782271
520.686	0.0790992
522.614	0.0800333
524.543	0.0811733
526.471	0.0818969
528.4	0.0824306
530.328	0.0831711
532.257	0.0837992
534.185	0.0846247
536.114	0.0855956
538.042	0.0863438
539.971	0.0869944
541.899	0.0877541
543.827	0.0884333
545.756	0.0892296
547.684	0.0900993
549.613	0.0910528
551.541	0.0918854
553.47	0.0926548
555.398	0.0935238
557.327	0.0945593
559.255	0.0952906
561.184	0.0955264
563.112	0.0963084
565.041	0.0970505
566.969	0.0974348
568.898	0.0977663
570.826	0.0985187
572.755	0.0991742
574.683	0.0996147
576.611	0.0997973
578.54	0.100264
580.468	0.100508
582.397	0.100644
584.325	0.100945
586.254	0.101288
588.182	0.101338
590.111	0.100843
592.039	0.100479
593.968	0.10064
595.896	0.100206
597.824	0.0992633
599.753	0.098956
601.682	0.0984652
603.61	0.0971
605.538	0.0955508
607.467	0.0943344
609.395	0.0929469
611.324	0.0915583
613.252	0.090349
615.181	0.0890774
617.109	0.0875964
619.038	0.0861726
620.966	0.0853263
622.894	0.0843873
624.823	0.0841449
626.751	0.0844192
628.68	0.0852595
630.608	0.0859784
632.537	0.085966
634.465	0.0853377
636.394	0.0851205
638.322	0.0853993
640.251	0.0856376
642.179	0.0855749
644.108	0.0860095
646.036	0.0862932
647.965	0.0859697
649.893	0.0857922
651.822	0.0855984
653.75	0.0847862
655.678	0.083803
657.607	0.0826267
659.535	0.0804656
661.464	0.0779593
663.392	0.0756298
665.321	0.0740882
667.249	0.0729635
669.178	0.0723751
671.106	0.0725709
673.035	0.0727333
674.963	0.0730328
676.892	0.0736145
678.82	0.0740518
680.749	0.0729166
682.677	0.0716758
684.606	0.0707462
686.534	0.069022
688.462	0.0661732
690.391	0.0634
692.319	0.0611463
694.248	0.0586117
696.176	0.0568327
698.105	0.0554109
700.033	0.0519173
