Measurement: Infrared, Infrared Data Processed
Mineral: Tugtupite
Rruff sample: R050278
Ideal chemistry: Na_4_BeAlSi_4_O_12_Cl
Locality: Kvanefjeld, Ilimaussag, Greenland
Source: Marcus Origlieri
Description: Pink fine-grained aggregate associated with albite
Measured chemistry: Na_4.00_Be_1.00_Al_1.00_Si_4.00_O_12_Cl_1.00_ ; Be not measured but estimated by charge balance
x	intensity
399.193	0.179307
408.835	0.178832
418.477	0.215001
428.12	0.213052
437.762	0.213081
447.404	0.233121
457.047	0.308983
466.689	0.29627
476.331	0.221495
485.974	0.15985
495.616	0.102072
505.258	0.0576461
514.901	0.034628
524.543	0.0417066
534.185	0.0486687
543.828	0.0354302
553.47	0.0360919
563.112	0.0422492
572.755	0.0533137
582.397	0.070189
592.039	0.0838337
601.682	0.0812303
611.324	0.108519
620.966	0.0616363
630.609	0.0468867
640.251	0.0599653
649.893	0.107562
659.536	0.0622174
669.178	0.0516574
678.82	0.0602276
688.463	0.0746688
698.105	0.102304
707.747	0.157575
717.39	0.266412
727.032	0.243964
736.674	0.131402
746.317	0.16636
755.959	0.167073
765.601	0.102623
775.244	0.0856838
784.886	0.0978696
794.528	0.0491745
804.171	0.0370457
813.813	0.0346177
823.455	0.0343318
833.098	0.03504
842.74	0.0371397
852.382	0.0416568
862.025	0.0472182
871.667	0.0543599
881.309	0.0623302
890.952	0.0741408
900.594	0.0920287
910.236	0.116094
919.879	0.150556
929.521	0.20137
939.163	0.277287
948.806	0.312529
958.448	0.380674
968.09	0.462662
977.733	0.459235
987.375	0.38518
997.017	0.312818
1006.66	0.25699
1016.3	0.223211
1025.94	0.243746
1035.59	0.316485
1045.23	0.320582
1054.87	0.216356
1064.51	0.185695
1074.16	0.141369
1083.8	0.119836
1093.44	0.106155
1103.08	0.0895195
1112.72	0.0737889
1122.37	0.0613424
1132.01	0.0576413
1141.65	0.0603375
1151.3	0.0629
1160.94	0.0588224
1170.58	0.0495119
1180.22	0.0399604
1189.86	0.0303698
1199.51	0.0214999
1209.15	0.0158728
1218.79	0.0117199
1228.43	0.0094339
1238.08	0.00774359
1247.72	0.00673239
1257.36	0.00616317
1267	0.00503926
1276.64	0.00525988
1286.29	0.00455434
1295.93	0.00432014
1305.57	0.00427334
1315.21	0.00417714
1324.86	0.00406664
1334.5	0.00414241
1344.14	0.00461915
1353.78	0.00455075
1363.43	0.00446776
1373.07	0.00473984
1382.71	0.00565544
1392.35	0.00571728
1401.99	0.00619353
1411.64	0.00693604
1421.28	0.00754741
1430.92	0.00840166
1440.57	0.00801555
1450.21	0.00781081
1459.85	0.00822986
1469.49	0.00798962
1479.13	0.0070629
1488.78	0.00645657
1498.42	0.00692437
1508.06	0.00692555
1517.7	0.00652061
1527.35	0.0061327
1536.99	0.00655445
1546.63	0.00639015
1556.27	0.00642842
1565.91	0.00625049
1575.56	0.00671002
1585.2	0.0063193
1594.84	0.00649988
1604.48	0.00704542
1614.13	0.0080246
1623.77	0.00938373
1633.41	0.010227
1643.05	0.00917957
1652.7	0.00880268
1662.34	0.00729746
1671.98	0.00683507
1681.62	0.00598511
1691.27	0.00515176
1700.91	0.00496295
1710.55	0.00445594
1720.19	0.0043027
1729.84	0.00470029
1739.48	0.0037633
1749.12	0.0030021
1758.76	0.00290142
1768.4	0.00241195
1778.05	0.00180983
1787.69	0.00166292
1797.33	0.00160344
1806.97	0.00178779
1816.62	0.00130923
1826.26	0.00135001
1835.9	0.00110838
1845.54	7.41787e-05
1855.18	0.000621638
1864.83	-0.000734094
1874.47	4.03717e-05
1884.11	-0.000780106
1893.75	-0.00192736
1903.4	-0.00137057
1913.04	-0.0004714
1922.68	-0.00466914
1932.32	-0.00387707
1941.97	-0.00514968
1951.61	-0.00634097
1961.25	-0.0101127
1970.89	-0.00935645
1980.54	-0.006566
1990.18	-0.00701165
1999.82	-0.00763019
2009.46	-0.00593159
2019.11	-0.00892268
2028.75	-0.00766353
2038.39	-0.00664666
2048.03	-0.00345581
2057.67	-0.00335336
2067.32	-0.00121195
2076.96	-0.00602242
2086.6	-0.00246348
2096.24	-0.00357314
2105.89	-0.00238617
2115.53	-0.00339073
2125.17	-0.00333013
2134.81	-0.00394427
2144.45	-0.00645088
2154.1	-0.00802949
2163.74	-0.00293884
2173.38	-0.00173996
2183.02	-0.00195017
2192.67	-0.00365
2202.31	-0.00328158
2211.95	-0.00152858
2221.59	0.00316469
2231.24	0.00231425
2240.88	0.000442998
2250.52	0.00249954
2260.16	0.000972832
2269.8	0.00120301
2279.45	0.00344725
2289.09	0.00321815
2298.73	0.00356783
2308.38	0.00263549
2318.02	0.00356007
2327.66	0.00192687
2337.3	0.00156178
2346.94	0.00231524
2356.59	0.00167125
2366.23	0.000860046
2375.87	0.00151399
2385.51	0.00270858
2395.16	0.000677012
2404.8	0.001725
2414.44	0.00171717
2424.08	0.00281551
2433.72	0.00163663
2443.37	0.00264408
2453.01	0.00215621
2462.65	0.00349269
2472.29	0.00126989
2481.94	0.00289029
2491.58	0.00195752
2501.22	0.00315775
2510.86	0.00273447
2520.51	0.00361873
2530.15	0.00320915
2539.79	0.00201985
2549.43	0.00371891
2559.07	0.00419496
2568.72	0.00330767
2578.36	0.00416106
2588	0.00395286
2597.64	0.00337643
2607.29	0.00383971
2616.93	0.00431556
2626.57	0.00607948
2636.21	0.00416728
2645.86	0.00379667
2655.5	0.003993
2665.14	0.00447494
2674.78	0.00338567
2684.43	0.0032127
2694.07	0.00431133
2703.71	0.00386382
2713.35	0.00438704
2722.99	0.00411338
2732.64	0.00391515
2742.28	0.00559547
2751.92	0.00344018
2761.56	0.00427475
2771.21	0.00536705
2780.85	0.00510575
2790.49	0.00474937
2800.13	0.00453831
2809.78	0.00540919
2819.42	0.00457326
2829.06	0.00550918
2838.7	0.00550003
2848.34	0.00490758
2857.99	0.00553245
2867.63	0.00451048
2877.27	0.00543179
2886.91	0.00622559
2896.56	0.00705695
2906.2	0.00687311
2915.84	0.00773186
2925.48	0.00591553
2935.13	0.00538251
2944.77	0.00533153
2954.41	0.00697095
2964.05	0.0049729
2973.7	0.00641127
2983.34	0.00674901
2992.98	0.00510919
3002.62	0.00647869
3012.26	0.00553415
3021.91	0.00920016
3031.55	0.00885864
3041.19	0.00855693
3050.83	0.0107708
3060.48	0.00708439
3070.12	0.0122114
3079.76	0.0114534
3089.4	0.00799402
3099.05	0.0100502
3108.69	0.00948384
3118.33	0.0115668
3127.97	0.0120126
3137.61	0.010866
3147.26	0.0107512
3156.9	0.0128684
3166.54	0.0130394
3176.18	0.0123659
3185.83	0.0138655
3195.47	0.0135514
3205.11	0.0164949
3214.75	0.0152449
3224.4	0.0164358
3234.04	0.0150185
3243.68	0.0155845
3253.32	0.0144127
3262.97	0.0174442
3272.61	0.0165949
3282.25	0.01826
3291.89	0.0171633
3301.53	0.0164768
3311.18	0.0201074
3320.82	0.015766
3330.46	0.0208905
3340.1	0.0195408
3349.75	0.0179081
3359.39	0.0177774
3369.03	0.0181621
3378.67	0.0185989
3388.32	0.0217184
3397.96	0.0196381
3407.6	0.0194821
3417.24	0.0189998
3426.89	0.0223272
3436.53	0.0224464
3446.17	0.0195488
3455.81	0.0179266
3465.45	0.0145645
3475.1	0.0221479
3484.74	0.0156557
3494.38	0.0171157
3504.02	0.0160089
3513.67	0.0181828
3523.31	0.0180879
3532.95	0.0175375
3542.59	0.0185164
3552.24	0.0194243
3561.88	0.0142566
3571.52	0.0104015
3581.16	0.0112458
3590.8	0.0103184
3600.45	0.00925151
3610.09	0.011399
3619.73	0.00733175
3629.37	0.0100852
3639.02	0.00843695
3648.66	0.00490831
3658.3	0.00594309
3667.94	0.00373571
3677.59	0.00670783
3687.23	0.00839446
3696.87	0.00390809
3706.51	0.00238321
3716.16	0.00265455
3725.8	0.00406564
3735.44	0.00498817
3745.08	0.00594955
3754.72	0.007223
3764.37	0.00498089
3774.01	0.00594932
3783.65	0.00749777
3793.29	0.00335914
3802.94	0.00329925
3812.58	0.00276519
3822.22	0.00142056
3831.86	0.000953146
3841.51	0.00382011
3851.15	0.00508279
3860.79	0.00542518
3870.43	0.00433211
3880.07	0.00269876
3889.72	0.00670937
3899.36	0.00972847
3909	0.00548409
3918.64	0.00551156
3928.29	0.00949997
3937.93	0.00676699
3947.57	0.00594451
3957.21	0.00829263
3966.86	0.00356105
3976.5	0.00767649
3986.14	0.00126298
3995.78	0.0103259
