Measurement: Infrared, Infrared Data Processed
Mineral: Turquoise
Rruff sample: R050554
Ideal chemistry: Cu^2+^Al_6_(P^5+^O_4_)_4_(OH)_8_4H_2_O
Locality: Bishop mine, Lynch Station, Campbell County, Virginia, USA
Source: Dave Bunk Minerals
Description: Group of blue bladed crystals
Measured chemistry: (Cu_0.97_Zn_0.02_Ca_0.01_)_Σ=1_Al_6.00_(P_1.00_O_4_)_4_(OH)_8_·4H_2_O
x	intensity
399.193	0.20958
408.835	0.212854
418.477	0.22496
428.12	0.237483
437.762	0.242713
447.404	0.263117
457.047	0.252416
466.689	0.230034
476.331	0.219649
485.974	0.202734
495.616	0.16556
505.258	0.151254
514.901	0.168635
524.543	0.173423
534.185	0.180808
543.828	0.176714
553.47	0.177498
563.112	0.181321
572.755	0.181565
582.397	0.167898
592.039	0.15308
601.682	0.146712
611.324	0.145851
620.966	0.1396
630.609	0.133685
640.251	0.134703
649.893	0.135328
659.536	0.114716
669.178	0.0956668
678.82	0.0848126
688.463	0.091299
698.105	0.0884055
707.747	0.0793718
717.39	0.0815766
727.032	0.0823183
736.674	0.0803855
746.317	0.0791163
755.959	0.0830281
765.601	0.0978686
775.244	0.124425
784.886	0.117146
794.528	0.11888
804.171	0.0932966
813.813	0.0663672
823.455	0.0684739
833.098	0.088354
842.74	0.0799484
852.382	0.0610839
862.025	0.055807
871.667	0.057296
881.309	0.0629779
890.952	0.0719956
900.594	0.0800491
910.236	0.0792408
919.879	0.0765916
929.521	0.0825069
939.163	0.0954912
948.806	0.107842
958.448	0.12085
968.09	0.14464
977.733	0.185383
987.375	0.241025
997.017	0.268535
1006.66	0.284759
1016.3	0.271879
1025.94	0.284081
1035.59	0.335845
1045.23	0.354511
1054.87	0.342239
1064.51	0.320967
1074.16	0.303666
1083.8	0.311591
1093.44	0.298895
1103.08	0.277165
1112.72	0.248
1122.37	0.209273
1132.01	0.177328
1141.65	0.154962
1151.3	0.141655
1160.94	0.133037
1170.58	0.113423
1180.22	0.0947436
1189.86	0.0837319
1199.51	0.0633176
1209.15	0.0405742
1218.79	0.023926
1228.43	0.015404
1238.08	0.0114749
1247.72	0.00896525
1257.36	0.00713983
1267	0.00610044
1276.64	0.00604901
1286.29	0.00528602
1295.93	0.0041701
1305.57	0.00400343
1315.21	0.00382361
1324.86	0.00360068
1334.5	0.00269298
1344.14	0.00244005
1353.78	0.000574352
1363.43	5.59755e-05
1373.07	0.000422574
1382.71	0.00109597
1392.35	0.00271333
1401.99	0.00317165
1411.64	0.00351308
1421.28	0.00418952
1430.92	0.00440357
1440.57	0.00418635
1450.21	0.00403618
1459.85	0.00348889
1469.49	0.00420272
1479.13	0.00733673
1488.78	0.00800481
1498.42	0.00854227
1508.06	0.00933014
1517.7	0.00937209
1527.35	0.00962015
1536.99	0.00980667
1546.63	0.00961461
1556.27	0.0108882
1565.91	0.0114586
1575.56	0.0129022
1585.2	0.0133075
1594.84	0.0143076
1604.48	0.0139894
1614.13	0.0141181
1623.77	0.0141412
1633.41	0.0147627
1643.05	0.0138075
1652.7	0.0137329
1662.34	0.011658
1671.98	0.00953436
1681.62	0.00829242
1691.27	0.00682759
1700.91	0.00614767
1710.55	0.00415261
1720.19	0.00348338
1729.84	0.00137731
1739.48	-0.00267401
1749.12	-0.00218225
1758.76	0.00359937
1768.4	0.0055001
1778.05	0.00591825
1787.69	0.00596151
1797.33	0.00644688
1806.97	0.00610377
1816.62	0.00554008
1826.26	0.00563323
1835.9	0.0063073
1845.54	0.00685846
1855.18	0.00681668
1864.83	0.00539271
1874.47	0.00590142
1884.11	0.00674639
1893.75	0.00550593
1903.4	0.00591163
1913.04	0.00471156
1922.68	0.00603479
1932.32	0.00408523
1941.97	0.00402007
1951.61	0.00277996
1961.25	0.00311994
1970.89	-0.000257127
1980.54	0.00188091
1990.18	0.00173359
1999.82	-0.00109098
2009.46	-0.00173167
2019.11	-0.00514276
2028.75	-0.00319283
2038.39	0.000958913
2048.03	-0.000666267
2057.67	0.00272107
2067.32	0.00196333
2076.96	0.00211188
2086.6	0.000320924
2096.24	0.00314377
2105.89	0.00359742
2115.53	0.00201572
2125.17	0.00161117
2134.81	-6.57812e-05
2144.45	-0.00264366
2154.1	-0.00680787
2163.74	0.0012292
2173.38	-0.00298145
2183.02	-0.00217651
2192.67	0.00262162
2202.31	0.0029616
2211.95	-0.000371659
2221.59	0.0013873
2231.24	3.43041e-05
2240.88	0.00267628
2250.52	0.0031135
2260.16	0.00454928
2269.8	0.00640841
2279.45	0.00818054
2289.09	0.0082624
2298.73	0.00859486
2308.38	0.00883946
2318.02	0.0106534
2327.66	0.00976543
2337.3	0.0105529
2346.94	0.0101032
2356.59	0.0102702
2366.23	0.00983463
2375.87	0.0092957
2385.51	0.0101477
2395.16	0.0084076
2404.8	0.00988287
2414.44	0.00913481
2424.08	0.0109901
2433.72	0.0116613
2443.37	0.0112358
2453.01	0.0122994
2462.65	0.0120342
2472.29	0.0127342
2481.94	0.011485
2491.58	0.0120995
2501.22	0.0121415
2510.86	0.0117121
2520.51	0.0127368
2530.15	0.0128823
2539.79	0.0121998
2549.43	0.0120428
2559.07	0.0140742
2568.72	0.0143362
2578.36	0.0148841
2588	0.0159609
2597.64	0.0142145
2607.29	0.0142479
2616.93	0.0140217
2626.57	0.0162401
2636.21	0.0160999
2645.86	0.0155413
2655.5	0.0160081
2665.14	0.0157506
2674.78	0.0152454
2684.43	0.0172892
2694.07	0.0174846
2703.71	0.0186915
2713.35	0.0194797
2722.99	0.0208816
2732.64	0.0200192
2742.28	0.0193819
2751.92	0.0215581
2761.56	0.0230705
2771.21	0.0226482
2780.85	0.0256394
2790.49	0.0231037
2800.13	0.0261779
2809.78	0.0266728
2819.42	0.0256073
2829.06	0.0269087
2838.7	0.0284693
2848.34	0.0264013
2857.99	0.0318795
2867.63	0.0325165
2877.27	0.0347843
2886.91	0.0343703
2896.56	0.0366034
2906.2	0.0354178
2915.84	0.0369849
2925.48	0.0419194
2935.13	0.0462053
2944.77	0.0471498
2954.41	0.0469921
2964.05	0.0538964
2973.7	0.0532106
2983.34	0.0554079
2992.98	0.0587769
3002.62	0.0619233
3012.26	0.0634814
3021.91	0.0693172
3031.55	0.0676995
3041.19	0.0732748
3050.83	0.075602
3060.48	0.0772092
3070.12	0.0751641
3079.76	0.0756027
3089.4	0.0774024
3099.05	0.0729945
3108.69	0.0694109
3118.33	0.0671183
3127.97	0.069194
3137.61	0.0675651
3147.26	0.0672533
3156.9	0.0656998
3166.54	0.0638232
3176.18	0.0671479
3185.83	0.0664843
3195.47	0.066466
3205.11	0.0692935
3214.75	0.070821
3224.4	0.0776025
3234.04	0.0762172
3243.68	0.0797444
3253.32	0.0800736
3262.97	0.0796499
3272.61	0.0834099
3282.25	0.0809778
3291.89	0.082558
3301.53	0.0782069
3311.18	0.0752596
3320.82	0.0738521
3330.46	0.0719976
3340.1	0.0703405
3349.75	0.0676609
3359.39	0.0679961
3369.03	0.0671131
3378.67	0.0673686
3388.32	0.065891
3397.96	0.0630663
3407.6	0.0654637
3417.24	0.0678058
3426.89	0.0731464
3436.53	0.0795477
3446.17	0.0908571
3455.81	0.0952939
3465.45	0.111796
3475.1	0.0748342
3484.74	0.0684658
3494.38	0.0769558
3504.02	0.0877671
3513.67	0.0790799
3523.31	0.0591364
3532.95	0.0442148
3542.59	0.0337307
3552.24	0.0339054
3561.88	0.0254765
3571.52	0.0185368
3581.16	0.0214534
3590.8	0.0205917
3600.45	0.0161242
3610.09	0.0153893
3619.73	0.0106105
3629.37	0.0105394
3639.02	0.00727003
3648.66	0.0132451
3658.3	0.0118231
3667.94	0.00474189
3677.59	0.00913571
3687.23	0.00589308
3696.87	0.00416769
3706.51	0.00732949
3716.16	0.00741844
3725.8	0.0103063
3735.44	0.00850111
3745.08	0.00973125
3754.72	0.00739758
3764.37	0.00651883
3774.01	0.00469891
3783.65	0.00457413
3793.29	0.00862419
3802.94	0.00871185
3812.58	0.00315396
3822.22	0.00550897
3831.86	0.00752813
3841.51	0.0103121
3851.15	0.00773741
3860.79	0.00784019
3870.43	0.00533812
3880.07	0.0101362
3889.72	0.00896636
3899.36	0.011648
3909	0.00908035
3918.64	0.00916228
3928.29	0.00786676
3937.93	0.00764266
3947.57	0.0122347
3957.21	0.011274
3966.86	0.00953231
3976.5	0.00958344
3986.14	0.0112049
3995.78	0.00712163
