Measurement: Infrared, Infrared Data Processed
Mineral: Ulexite
Rruff sample: R050062
Ideal chemistry: NaCaB_5_O_6_(OH)_6_5H_2_O
Locality: California, USA
Source: Rock Currier
Description: Compact parallel fibrous group
Measured chemistry: (Na_0.60_Ca_0.20_[box]_20_)_Σ=1_Ca_1.00_B_5.00_O_6_(OH)_6_·5H_2_O ; B not measured but assumed by stoichiometry and charge balance.
x	intensity
399.193	0.137802
408.835	0.151441
418.477	0.158904
428.12	0.152278
437.762	0.152453
447.404	0.157096
457.047	0.126287
466.689	0.139267
476.331	0.147808
485.974	0.147693
495.616	0.152228
505.258	0.153824
514.901	0.158882
524.543	0.172225
534.185	0.181096
543.828	0.164204
553.47	0.149203
563.112	0.137265
572.755	0.135144
582.397	0.136609
592.039	0.141464
601.682	0.145207
611.324	0.14548
620.966	0.140438
630.609	0.147175
640.251	0.15736
649.893	0.150559
659.536	0.135728
669.178	0.12943
678.82	0.131803
688.463	0.134557
698.105	0.14751
707.747	0.175777
717.39	0.169008
727.032	0.130803
736.674	0.133297
746.317	0.140645
755.959	0.100929
765.601	0.0842216
775.244	0.0831033
784.886	0.0881981
794.528	0.0986528
804.171	0.116811
813.813	0.156802
823.455	0.215735
833.098	0.232598
842.74	0.262243
852.382	0.325358
862.025	0.286899
871.667	0.203877
881.309	0.151915
890.952	0.121933
900.594	0.128399
910.236	0.147979
919.879	0.171396
929.521	0.166801
939.163	0.175214
948.806	0.218088
958.448	0.256288
968.09	0.300505
977.733	0.314095
987.375	0.294986
997.017	0.293058
1006.66	0.263178
1016.3	0.210617
1025.94	0.198236
1035.59	0.232323
1045.23	0.26986
1054.87	0.266913
1064.51	0.237637
1074.16	0.214053
1083.8	0.206127
1093.44	0.202067
1103.08	0.19142
1112.72	0.162409
1122.37	0.134139
1132.01	0.116838
1141.65	0.102577
1151.3	0.0868749
1160.94	0.0765764
1170.58	0.0755382
1180.22	0.0867464
1189.86	0.10334
1199.51	0.115154
1209.15	0.132093
1218.79	0.107714
1228.43	0.0822369
1238.08	0.0703697
1247.72	0.0610259
1257.36	0.0578427
1267	0.061048
1276.64	0.0712283
1286.29	0.0863201
1295.93	0.109211
1305.57	0.166243
1315.21	0.230474
1324.86	0.191814
1334.5	0.15574
1344.14	0.152339
1353.78	0.173194
1363.43	0.151259
1373.07	0.123708
1382.71	0.142278
1392.35	0.16097
1401.99	0.157512
1411.64	0.163603
1421.28	0.144684
1430.92	0.109524
1440.57	0.0756258
1450.21	0.0582629
1459.85	0.0492949
1469.49	0.0476126
1479.13	0.0442471
1488.78	0.0276548
1498.42	0.019323
1508.06	0.0159971
1517.7	0.0142174
1527.35	0.0140226
1536.99	0.0137598
1546.63	0.0149504
1556.27	0.0162167
1565.91	0.0181263
1575.56	0.0192573
1585.2	0.0218178
1594.84	0.0247475
1604.48	0.0287638
1614.13	0.0347992
1623.77	0.0418612
1633.41	0.0420083
1643.05	0.0333416
1652.7	0.031178
1662.34	0.0351798
1671.98	0.0311864
1681.62	0.0233152
1691.27	0.0205035
1700.91	0.0184533
1710.55	0.0166231
1720.19	0.0137413
1729.84	0.0119691
1739.48	0.00915265
1749.12	0.00806152
1758.76	0.00891664
1768.4	0.00863177
1778.05	0.00849009
1787.69	0.00881973
1797.33	0.0088082
1806.97	0.0086694
1816.62	0.00854815
1826.26	0.00903268
1835.9	0.00866516
1845.54	0.00866751
1855.18	0.0092981
1864.83	0.00970542
1874.47	0.00942581
1884.11	0.00856592
1893.75	0.00950258
1903.4	0.00914476
1913.04	0.00878511
1922.68	0.00780507
1932.32	0.00616438
1941.97	0.00525023
1951.61	0.00431766
1961.25	0.00388086
1970.89	0.00151039
1980.54	0.00820747
1990.18	0.00548256
1999.82	0.00392209
2009.46	0.00263169
2019.11	0.00307678
2028.75	0.00482157
2038.39	0.0082237
2048.03	0.0110783
2057.67	0.00960169
2067.32	0.00973881
2076.96	0.0114847
2086.6	0.0119296
2096.24	0.0110206
2105.89	0.0115729
2115.53	0.0127562
2125.17	0.010444
2134.81	0.00784112
2144.45	0.00776919
2154.1	0.00352373
2163.74	0.0116881
2173.38	0.0112483
2183.02	0.009366
2192.67	0.011925
2202.31	0.0135979
2211.95	0.0121313
2221.59	0.0145845
2231.24	0.0151801
2240.88	0.018491
2250.52	0.0173049
2260.16	0.018294
2269.8	0.0201109
2279.45	0.020519
2289.09	0.0214046
2298.73	0.0221619
2308.38	0.0220439
2318.02	0.0229184
2327.66	0.0226088
2337.3	0.0233384
2346.94	0.0225233
2356.59	0.0236847
2366.23	0.0239204
2375.87	0.0252002
2385.51	0.0257894
2395.16	0.0252987
2404.8	0.0239934
2414.44	0.0249777
2424.08	0.0243219
2433.72	0.0249491
2443.37	0.0260867
2453.01	0.0273059
2462.65	0.0284675
2472.29	0.0291051
2481.94	0.0299291
2491.58	0.0301771
2501.22	0.0300581
2510.86	0.0300159
2520.51	0.0307598
2530.15	0.0289723
2539.79	0.0275208
2549.43	0.0261587
2559.07	0.0254492
2568.72	0.0251287
2578.36	0.023352
2588	0.0235072
2597.64	0.024278
2607.29	0.0237881
2616.93	0.0239494
2626.57	0.0246253
2636.21	0.0256531
2645.86	0.0256352
2655.5	0.0269215
2665.14	0.0266615
2674.78	0.02686
2684.43	0.026365
2694.07	0.0261365
2703.71	0.0264348
2713.35	0.0257737
2722.99	0.0270138
2732.64	0.0277331
2742.28	0.0283861
2751.92	0.0290758
2761.56	0.0307456
2771.21	0.0306015
2780.85	0.0310445
2790.49	0.0326559
2800.13	0.0339425
2809.78	0.0343337
2819.42	0.0348076
2829.06	0.0352527
2838.7	0.0362547
2848.34	0.0356362
2857.99	0.0370837
2867.63	0.0390611
2877.27	0.0413545
2886.91	0.0424362
2896.56	0.0436343
2906.2	0.045164
2915.84	0.0456674
2925.48	0.0455257
2935.13	0.0469026
2944.77	0.0499008
2954.41	0.0497328
2964.05	0.0519997
2973.7	0.0544685
2983.34	0.0573014
2992.98	0.0586293
3002.62	0.0612088
3012.26	0.0638978
3021.91	0.0672491
3031.55	0.0701369
3041.19	0.0734969
3050.83	0.0783006
3060.48	0.0852863
3070.12	0.0913586
3079.76	0.100952
3089.4	0.112989
3099.05	0.128275
3108.69	0.14476
3118.33	0.158721
3127.97	0.162723
3137.61	0.157217
3147.26	0.151199
3156.9	0.147188
3166.54	0.146612
3176.18	0.147782
3185.83	0.150189
3195.47	0.155356
3205.11	0.157355
3214.75	0.160226
3224.4	0.158779
3234.04	0.156354
3243.68	0.151891
3253.32	0.151618
3262.97	0.151148
3272.61	0.152457
3282.25	0.154919
3291.89	0.15745
3301.53	0.156196
3311.18	0.154475
3320.82	0.152977
3330.46	0.148009
3340.1	0.150934
3349.75	0.152883
3359.39	0.155975
3369.03	0.159565
3378.67	0.166346
3388.32	0.172967
3397.96	0.182515
3407.6	0.192286
3417.24	0.192743
3426.89	0.182472
3436.53	0.171414
3446.17	0.160558
3455.81	0.150817
3465.45	0.143458
3475.1	0.135354
3484.74	0.134998
3494.38	0.130711
3504.02	0.131087
3513.67	0.129995
3523.31	0.126015
3532.95	0.108144
3542.59	0.0909219
3552.24	0.0788762
3561.88	0.0799994
3571.52	0.0880513
3581.16	0.101423
3590.8	0.140582
3600.45	0.117519
3610.09	0.0579274
3619.73	0.0319279
3629.37	0.0220126
3639.02	0.0164179
3648.66	0.0115477
3658.3	0.00969556
3667.94	0.00554709
3677.59	0.00579527
3687.23	0.00416306
3696.87	0.00217474
3706.51	0.00514457
3716.16	0.00264214
3725.8	0.00309702
3735.44	0.00230153
3745.08	0.00468041
3754.72	0.00481914
3764.37	0.00410877
3774.01	0.00304924
3783.65	0.00387066
3793.29	0.00412433
3802.94	0.0065433
3812.58	0.0063189
3822.22	0.00551093
3831.86	0.0039344
3841.51	0.00456377
3851.15	0.00437378
3860.79	0.00252748
3870.43	0.0028984
3880.07	0.00668645
3889.72	0.00739334
3899.36	0.00533061
3909	0.00540244
3918.64	0.00695708
3928.29	0.00573237
3937.93	0.00419596
3947.57	0.0051672
3957.21	0.00648853
3966.86	0.00654554
3976.5	0.00405531
3986.14	0.00698225
3995.78	0.00489975
