Measurement: Infrared, Infrared Data Processed
Mineral: Vesuvianite
Rruff sample: R050056
Ideal chemistry: (Ca,Na)_19_(Al,Mg,Fe^3+^)_13_(SiO_4_)_10_(Si_2_O_7_)_4_(OH,F,O)_10_
Locality: Jeffrey Quarry, Asbestos, Quebec, Canada
Source: Tony Gordian
Description: Green prismatic single crystal
Measured chemistry: Ca_19_(Al_.804_Mg_.149_Fe_.045_Mn_.002_)_13_Si_18_O_68_(OH)_10_
x	intensity
399.193	0.259163
408.835	0.280152
418.477	0.260921
428.12	0.283757
437.762	0.256731
447.404	0.225052
457.047	0.204988
466.689	0.218814
476.331	0.222009
485.974	0.21739
495.616	0.183606
505.258	0.157247
514.901	0.126899
524.543	0.122486
534.185	0.11677
543.828	0.109519
553.47	0.107564
563.112	0.121698
572.755	0.144237
582.397	0.126953
592.039	0.119292
601.682	0.132439
611.324	0.123713
620.966	0.110423
630.609	0.0981885
640.251	0.084521
649.893	0.0738477
659.536	0.0715469
669.178	0.062487
678.82	0.0543028
688.463	0.0558152
698.105	0.0568348
707.747	0.0617269
717.39	0.0583903
727.032	0.0577031
736.674	0.0642894
746.317	0.072234
755.959	0.0816248
765.601	0.0978837
775.244	0.12906
784.886	0.17514
794.528	0.203444
804.171	0.202959
813.813	0.202351
823.455	0.214668
833.098	0.24284
842.74	0.26268
852.382	0.269609
862.025	0.263371
871.667	0.259517
881.309	0.270343
890.952	0.265946
900.594	0.247354
910.236	0.250451
919.879	0.241146
929.521	0.205449
939.163	0.200103
948.806	0.213679
958.448	0.218456
968.09	0.201318
977.733	0.171308
987.375	0.145995
997.017	0.142857
1006.66	0.172471
1016.3	0.176417
1025.94	0.136426
1035.59	0.0885711
1045.23	0.0533657
1054.87	0.0338832
1064.51	0.0257825
1074.16	0.0220324
1083.8	0.0193867
1093.44	0.0173021
1103.08	0.0157806
1112.72	0.0142551
1122.37	0.012469
1132.01	0.0107052
1141.65	0.00971553
1151.3	0.00846325
1160.94	0.00754141
1170.58	0.0068021
1180.22	0.00667615
1189.86	0.0057545
1199.51	0.0062245
1209.15	0.00563818
1218.79	0.00593578
1228.43	0.00554204
1238.08	0.00596617
1247.72	0.0061163
1257.36	0.00576503
1267	0.00546872
1276.64	0.00583025
1286.29	0.00565972
1295.93	0.00600683
1305.57	0.00625052
1315.21	0.00686928
1324.86	0.00687849
1334.5	0.00708885
1344.14	0.00751269
1353.78	0.00797777
1363.43	0.00869889
1373.07	0.00980074
1382.71	0.0107253
1392.35	0.0118515
1401.99	0.0129678
1411.64	0.0137466
1421.28	0.0140155
1430.92	0.0146243
1440.57	0.0149741
1450.21	0.015192
1459.85	0.0150082
1469.49	0.0157573
1479.13	0.0154736
1488.78	0.0148743
1498.42	0.01459
1508.06	0.0130235
1517.7	0.0132871
1527.35	0.0141098
1536.99	0.013763
1546.63	0.0140713
1556.27	0.0133048
1565.91	0.0147603
1575.56	0.0127119
1585.2	0.0149735
1594.84	0.0153584
1604.48	0.0154037
1614.13	0.015064
1623.77	0.0148963
1633.41	0.0144378
1643.05	0.0156433
1652.7	0.0117357
1662.34	0.0151729
1671.98	0.015044
1681.62	0.0135944
1691.27	0.0141711
1700.91	0.0111764
1710.55	0.0129892
1720.19	0.0126225
1729.84	0.0121903
1739.48	0.0117222
1749.12	0.0116791
1758.76	0.0128887
1768.4	0.0121658
1778.05	0.0133195
1787.69	0.0134766
1797.33	0.0138262
1806.97	0.0135324
1816.62	0.0130969
1826.26	0.0140327
1835.9	0.0136427
1845.54	0.0125993
1855.18	0.014544
1864.83	0.0141624
1874.47	0.0143236
1884.11	0.0137202
1893.75	0.0139716
1903.4	0.0131302
1913.04	0.0141859
1922.68	0.0118554
1932.32	0.0124395
1941.97	0.00994434
1951.61	0.0110884
1961.25	0.00997311
1970.89	0.0065036
1980.54	0.0138892
1990.18	0.011838
1999.82	0.012199
2009.46	0.0131649
2019.11	0.0110219
2028.75	0.0116468
2038.39	0.0138481
2048.03	0.01555
2057.67	0.0158824
2067.32	0.0149301
2076.96	0.019068
2086.6	0.0180302
2096.24	0.0182632
2105.89	0.0181242
2115.53	0.0180339
2125.17	0.0181395
2134.81	0.0171546
2144.45	0.019596
2154.1	0.0155431
2163.74	0.0257609
2173.38	0.0223703
2183.02	0.0197642
2192.67	0.0244855
2202.31	0.0239612
2211.95	0.0222745
2221.59	0.025122
2231.24	0.024321
2240.88	0.0247608
2250.52	0.0231481
2260.16	0.0253602
2269.8	0.0253263
2279.45	0.0258674
2289.09	0.026747
2298.73	0.0254369
2308.38	0.0273303
2318.02	0.0271166
2327.66	0.0255096
2337.3	0.026345
2346.94	0.025764
2356.59	0.0267011
2366.23	0.0259824
2375.87	0.0249124
2385.51	0.0245427
2395.16	0.0251216
2404.8	0.0259241
2414.44	0.025343
2424.08	0.0257774
2433.72	0.0256608
2443.37	0.026535
2453.01	0.0277022
2462.65	0.0283931
2472.29	0.0266043
2481.94	0.0292939
2491.58	0.0264737
2501.22	0.028205
2510.86	0.0298172
2520.51	0.0270216
2530.15	0.0289191
2539.79	0.0285014
2549.43	0.0306564
2559.07	0.0294816
2568.72	0.0306411
2578.36	0.0293015
2588	0.0301336
2597.64	0.0313201
2607.29	0.0314642
2616.93	0.0312431
2626.57	0.0315749
2636.21	0.0327004
2645.86	0.0324459
2655.5	0.0317802
2665.14	0.0309005
2674.78	0.0317889
2684.43	0.0316836
2694.07	0.0313674
2703.71	0.0322937
2713.35	0.030724
2722.99	0.033064
2732.64	0.032842
2742.28	0.0324776
2751.92	0.0336736
2761.56	0.034271
2771.21	0.0338393
2780.85	0.0346587
2790.49	0.0346907
2800.13	0.0352789
2809.78	0.0348784
2819.42	0.0352429
2829.06	0.0356723
2838.7	0.0367623
2848.34	0.0374852
2857.99	0.0353175
2867.63	0.0367021
2877.27	0.0394413
2886.91	0.0392946
2896.56	0.0394513
2906.2	0.0392175
2915.84	0.0411853
2925.48	0.0411164
2935.13	0.0373929
2944.77	0.0405607
2954.41	0.038323
2964.05	0.0400472
2973.7	0.0415746
2983.34	0.0407193
2992.98	0.0417127
3002.62	0.0438802
3012.26	0.0436283
3021.91	0.0432205
3031.55	0.0439112
3041.19	0.0448496
3050.83	0.0437909
3060.48	0.0458516
3070.12	0.0470948
3079.76	0.0489813
3089.4	0.0477733
3099.05	0.0485013
3108.69	0.0505231
3118.33	0.0520182
3127.97	0.0518097
3137.61	0.0532592
3147.26	0.0554942
3156.9	0.056726
3166.54	0.0539712
3176.18	0.054888
3185.83	0.0549105
3195.47	0.055238
3205.11	0.0545143
3214.75	0.0567836
3224.4	0.0524611
3234.04	0.0557442
3243.68	0.0533661
3253.32	0.0544497
3262.97	0.0552923
3272.61	0.0554838
3282.25	0.0551596
3291.89	0.0541137
3301.53	0.0560946
3311.18	0.0579595
3320.82	0.0571723
3330.46	0.0568062
3340.1	0.0589588
3349.75	0.0603952
3359.39	0.0599116
3369.03	0.0608329
3378.67	0.0631633
3388.32	0.064355
3397.96	0.0606506
3407.6	0.0629448
3417.24	0.0637224
3426.89	0.0647159
3436.53	0.0623179
3446.17	0.0600468
3455.81	0.0629634
3465.45	0.0630023
3475.1	0.0616131
3484.74	0.0618783
3494.38	0.0634698
3504.02	0.0603944
3513.67	0.0576357
3523.31	0.0596887
3532.95	0.0572114
3542.59	0.0567543
3552.24	0.0590068
3561.88	0.0549873
3571.52	0.0553784
3581.16	0.0507437
3590.8	0.0527733
3600.45	0.0529724
3610.09	0.051986
3619.73	0.0560267
3629.37	0.0611939
3639.02	0.0633949
3648.66	0.0504568
3658.3	0.0500894
3667.94	0.0498484
3677.59	0.0477984
3687.23	0.0408438
3696.87	0.0447084
3706.51	0.0504286
3716.16	0.0462874
3725.8	0.0447005
3735.44	0.0428049
3745.08	0.0396264
3754.72	0.0535872
3764.37	0.0446981
3774.01	0.0451059
3783.65	0.0491371
3793.29	0.0518512
3802.94	0.0473567
3812.58	0.0547297
3822.22	0.0471564
3831.86	0.0484791
3841.51	0.0495894
3851.15	0.0461448
3860.79	0.045982
3870.43	0.0514131
3880.07	0.0521271
3889.72	0.048956
3899.36	0.0508475
3909	0.0549147
3918.64	0.0538921
3928.29	0.047833
3937.93	0.0512684
3947.57	0.0526212
3957.21	0.0540946
3966.86	0.0518276
3976.5	0.054262
3986.14	0.0535043
3995.78	0.0621532
