Measurement: Infrared, Infrared Data Processed
Mineral: Vivianite
Rruff sample: R060025
Ideal chemistry: Fe^2+^_3_(PO_4_)_2_8H_2_O
Locality: Gypsy mine, Minas Gerais, Brazil
Source: Eric Van Valkenburg
Description: Blue-green fragment
x	intensity
374.123	0.0816417
383.765	0.0983284
393.407	0.1148
403.05	0.121893
412.692	0.132769
422.334	0.14027
431.976	0.149615
441.619	0.154466
451.261	0.160132
460.904	0.163821
470.546	0.164231
480.188	0.163607
489.83	0.169174
499.473	0.174896
509.115	0.183319
518.758	0.190836
528.4	0.198746
538.042	0.190969
547.684	0.169331
557.327	0.152817
566.969	0.135646
576.611	0.115374
586.254	0.0949647
595.896	0.0838537
605.538	0.0817855
615.181	0.0838248
624.823	0.0872603
634.466	0.0894883
644.108	0.091716
653.75	0.0937868
663.393	0.0948561
673.035	0.0941504
682.677	0.0931121
692.319	0.0920714
701.962	0.0921042
711.604	0.0939896
721.246	0.0973876
730.889	0.102142
740.531	0.108541
750.173	0.116241
759.816	0.125066
769.458	0.134876
779.101	0.143979
788.743	0.150345
798.385	0.152656
808.028	0.149446
817.67	0.138775
827.312	0.123349
836.955	0.107556
846.597	0.0946513
856.239	0.0849864
865.881	0.0803616
875.524	0.0818931
885.166	0.088883
894.808	0.0998967
904.451	0.114741
914.093	0.135095
923.736	0.163957
933.378	0.184666
943.02	0.154812
952.663	0.159095
962.305	0.201231
971.947	0.226441
981.59	0.206464
991.232	0.192326
1000.87	0.19512
1010.52	0.201572
1020.16	0.207793
1029.8	0.214057
1039.44	0.200581
1049.09	0.161712
1058.73	0.120104
1068.37	0.0895862
1078.01	0.0656189
1087.65	0.0459674
1097.3	0.0360681
1106.94	0.030951
1116.58	0.027337
1126.22	0.0250175
1135.87	0.0231668
1145.51	0.0214372
1155.15	0.0188722
1164.79	0.0166629
1174.44	0.0147117
1184.08	0.0132576
1193.72	0.0125745
1203.36	0.0114246
1213.01	0.0107961
1222.65	0.0107862
1232.29	0.011025
1241.93	0.0112041
1251.58	0.0109855
1261.22	0.0110845
1270.86	0.0111363
1280.5	0.0111625
1290.14	0.0110347
1299.79	0.0113457
1309.43	0.011344
1319.07	0.0117041
1328.71	0.0119659
1338.36	0.012361
1348	0.0125739
1357.64	0.0131338
1367.28	0.0137755
1376.92	0.0144136
1386.57	0.0152827
1396.21	0.0160045
1405.85	0.0167149
1415.49	0.0176914
1425.14	0.0188317
1434.78	0.0201873
1444.42	0.0209343
1454.06	0.0218042
1463.71	0.0224672
1473.35	0.0235781
1482.99	0.024584
1492.63	0.0262122
1502.28	0.028484
1511.92	0.0314579
1521.56	0.0347472
1531.2	0.03739
1540.85	0.040893
1550.49	0.0432052
1560.13	0.0462489
1569.77	0.0482941
1579.41	0.0501301
1589.06	0.0518101
1598.7	0.0541008
1608.34	0.0563642
1617.98	0.0581473
1627.63	0.0567524
1637.27	0.0542725
1646.91	0.0523343
1656.55	0.051086
1666.19	0.0493388
1675.84	0.0438955
1685.48	0.0364556
1695.12	0.0308241
1704.77	0.0271266
1714.41	0.0261731
1724.05	0.0265262
1733.69	0.0249883
1743.33	0.0213214
1752.98	0.0193093
1762.62	0.0183568
1772.26	0.0177396
1781.9	0.0167813
1791.55	0.0162868
1801.19	0.0158193
1810.83	0.0154298
1820.47	0.0150692
1830.12	0.0148632
1839.76	0.0144349
1849.4	0.0143254
1859.04	0.0142622
1868.68	0.0138991
1878.33	0.014302
1887.97	0.0143631
1897.61	0.013877
1907.25	0.0148047
1916.9	0.014651
1926.54	0.014267
1936.18	0.0140363
1945.82	0.0132374
1955.46	0.0126147
1965.11	0.0140899
1974.75	0.014689
1984.39	0.0158908
1994.04	0.0147301
2003.68	0.0139415
2013.32	0.0143101
2022.96	0.0134733
2032.6	0.0161159
2042.25	0.0153728
2051.89	0.0171055
2061.53	0.0171008
2071.17	0.0176308
2080.82	0.0176764
2090.46	0.0177336
2100.1	0.0203555
2109.74	0.0202882
2119.39	0.021007
2129.03	0.0204744
2138.67	0.0210734
2148.31	0.0222038
2157.95	0.0228391
2167.6	0.0268278
2177.24	0.0267553
2186.88	0.0287706
2196.52	0.0281978
2206.17	0.0278241
2215.81	0.0275191
2225.45	0.0282254
2235.09	0.0277767
2244.74	0.0275773
2254.38	0.0285153
2264.02	0.0278199
2273.66	0.0281576
2283.3	0.0288477
2292.95	0.0281223
2302.59	0.0279537
2312.23	0.0281015
2321.87	0.0283141
2331.52	0.0270757
2341.16	0.0267611
2350.8	0.0265387
2360.44	0.0266001
2370.09	0.0259926
2379.73	0.0261609
2389.37	0.0263363
2399.01	0.0264096
2408.66	0.026496
2418.3	0.0264064
2427.94	0.0268285
2437.58	0.0265579
2447.22	0.0274746
2456.87	0.0271226
2466.51	0.0271542
2476.15	0.0273038
2485.79	0.0280176
2495.44	0.027916
2505.08	0.0286286
2514.72	0.0292132
2524.36	0.0289717
2534.01	0.0299581
2543.65	0.0304439
2553.29	0.0312989
2562.93	0.0317051
2572.57	0.0332106
2582.22	0.0339017
2591.86	0.0344722
2601.5	0.0355252
2611.14	0.0369479
2620.79	0.0379049
2630.43	0.038765
2640.07	0.040286
2649.71	0.0415943
2659.36	0.042698
2669	0.0436489
2678.64	0.0450178
2688.28	0.0467603
2697.93	0.0483588
2707.57	0.0499832
2717.21	0.05213
2726.85	0.0538697
2736.49	0.0558422
2746.14	0.0584405
2755.78	0.0605149
2765.42	0.0628133
2775.06	0.0659485
2784.71	0.0685981
2794.35	0.07128
2803.99	0.0746521
2813.63	0.0780755
2823.28	0.0812506
2832.92	0.0851036
2842.56	0.0891352
2852.2	0.0936489
2861.84	0.0976692
2871.49	0.10142
2881.13	0.105255
2890.77	0.110327
2900.41	0.115627
2910.06	0.120371
2919.7	0.126169
2929.34	0.131256
2938.98	0.134536
2948.62	0.140382
2958.27	0.144999
2967.91	0.149468
2977.55	0.154167
2987.2	0.15992
2996.84	0.166129
3006.48	0.172541
3016.12	0.178804
3025.76	0.186096
3035.41	0.192333
3045.05	0.199945
3054.69	0.207398
3064.33	0.2136
3073.98	0.219807
3083.62	0.225802
3093.26	0.228854
3102.9	0.233259
3112.55	0.235033
3122.19	0.234316
3131.83	0.232819
3141.47	0.229661
3151.11	0.226145
3160.76	0.222667
3170.4	0.219202
3180.04	0.215615
3189.68	0.211933
3199.33	0.208636
3208.97	0.206857
3218.61	0.20313
3228.25	0.200066
3237.9	0.196406
3247.54	0.193322
3257.18	0.189671
3266.82	0.186771
3276.47	0.182376
3286.11	0.178147
3295.75	0.174424
3305.39	0.17019
3315.03	0.165914
3324.68	0.161155
3334.32	0.156429
3343.96	0.151144
3353.6	0.146798
3363.25	0.142497
3372.89	0.139216
3382.53	0.136458
3392.17	0.135257
3401.82	0.133351
3411.46	0.134655
3421.1	0.13659
3430.74	0.141065
3440.39	0.146151
3450.03	0.152386
3459.67	0.157916
3469.31	0.15857
3478.95	0.15224
3488.6	0.137797
3498.24	0.119467
3507.88	0.100503
3517.52	0.0825136
3527.17	0.068836
3536.81	0.0587695
3546.45	0.0503052
3556.09	0.0439721
3565.74	0.0368006
3575.38	0.0306356
3585.02	0.0263138
3594.66	0.0217039
3604.3	0.0168784
3613.95	0.0140554
3623.59	0.0107913
3633.23	0.00905405
3642.87	0.00635942
3652.52	0.00561335
3662.16	0.00414797
3671.8	0.00421962
3681.44	0.00264716
3691.09	0.0030656
3700.73	0.00204577
3710.37	0.00214685
3720.01	0.0019389
3729.66	0.00123648
3739.3	0.00140234
3748.94	0.00262229
3758.58	0.00142602
3768.22	0.00237744
3777.87	0.00162843
3787.51	0.00188977
3797.15	0.00187294
3806.79	0.00225028
3816.44	0.00287015
3826.08	0.00148061
3835.72	0.00256459
3845.36	0.00291376
3855.01	0.0033771
3864.65	0.00273958
3874.29	0.00273004
3883.93	0.00295864
3893.57	0.00160681
3903.22	0.00182799
3912.86	0.00215919
3922.5	0.00295837
3932.14	0.00307958
3941.79	0.00174389
3951.43	0.00259883
3961.07	0.00264567
3970.71	0.00265726
3980.36	0.00188418
3990	0.0033479
3999.64	0.00406841
