Measurement: Infrared, Infrared Data Processed
Mineral: Volborthite
Rruff sample: R050216
Ideal chemistry: Cu^2+^_3_V^5+^_2_O_7_(OH)_2_2H_2_O
Locality: Monument Valley, White Canyon-Monument Valley District, Apache & Navajo Counties, Arizona, USA
Source: Marcus Origlieri
Description: Green rosettelike aggregate of hexagonal scaly crystals
Measured chemistry: Cu_3.00_V_2.00_O_7_(OH)_2_Â·2H_2_O
x	intensity
50.1401	0.00972438
52.0686	0.0101456
53.9971	0.0129363
55.9255	0.0108921
57.854	0.0121619
59.7825	0.0141526
61.7109	0.0156864
63.6394	0.0148346
65.5679	0.0126242
67.4963	0.0145992
69.4248	0.0159071
71.3533	0.0145296
73.2817	0.0148861
75.2102	0.0167665
77.1387	0.0188957
79.0671	0.0190661
80.9956	0.017493
82.9241	0.0176854
84.8525	0.0186672
86.781	0.0191971
88.7095	0.0194656
90.6379	0.0197176
92.5664	0.0201776
94.4948	0.0209163
96.4233	0.0218445
98.3518	0.0220127
100.28	0.0221271
102.209	0.0229367
104.137	0.0240782
106.066	0.0245232
107.994	0.024455
109.923	0.0245688
111.851	0.0257319
113.779	0.0272815
115.708	0.0275343
117.636	0.0275969
119.565	0.028022
121.493	0.028076
123.422	0.0288025
125.35	0.0294917
127.279	0.0299741
129.207	0.0311634
131.136	0.0326649
133.064	0.03217
134.993	0.031507
136.921	0.0317501
138.85	0.0326165
140.778	0.0327668
142.707	0.0330415
144.635	0.0341325
146.563	0.0357334
148.492	0.0365011
150.42	0.0368461
152.349	0.0378874
154.277	0.0384069
156.206	0.0383971
158.134	0.0383469
160.063	0.0381364
161.991	0.0381216
163.92	0.038178
165.848	0.0382478
167.777	0.0380986
169.705	0.0377759
171.633	0.0375984
173.562	0.0380706
175.49	0.0382936
177.419	0.0383083
179.347	0.0383168
181.276	0.0385062
183.204	0.0389011
185.133	0.0391685
187.061	0.0394689
188.99	0.0400321
190.918	0.0410197
192.847	0.0422981
194.775	0.0428226
196.704	0.043738
198.632	0.0449128
200.56	0.0458559
202.489	0.046728
204.417	0.0475277
206.346	0.0486465
208.274	0.0501675
210.203	0.0510661
212.131	0.0515458
214.06	0.0517429
215.988	0.0520259
217.917	0.0524617
219.845	0.0524118
221.774	0.0517106
223.702	0.050726
225.631	0.0500794
227.559	0.0491515
229.488	0.047794
231.416	0.0467862
233.344	0.0460158
235.273	0.0454447
237.201	0.0452482
239.13	0.0450174
241.058	0.0445726
242.987	0.0439083
244.915	0.0427939
246.844	0.0413394
248.772	0.0401535
250.701	0.0396345
252.629	0.0397192
254.558	0.0397744
256.486	0.0399525
258.414	0.0405845
260.343	0.0413205
262.271	0.0421647
264.2	0.0431002
266.128	0.0442675
268.057	0.0454533
269.985	0.0469209
271.914	0.0483162
273.842	0.0497592
275.771	0.0508359
277.699	0.0510538
279.628	0.0506496
281.556	0.0496426
283.485	0.0488961
285.413	0.0490701
287.341	0.0496497
289.27	0.0501018
291.198	0.0505055
293.127	0.0515125
295.055	0.0526783
296.984	0.0537173
298.912	0.0544897
300.841	0.0550571
302.769	0.0553283
304.698	0.0555366
306.626	0.0559735
308.555	0.0568274
310.483	0.0575811
312.411	0.0586846
314.34	0.0596344
316.269	0.0605342
318.197	0.0613037
320.125	0.0619617
322.054	0.0628259
323.982	0.0642179
325.911	0.06547
327.839	0.0663595
329.768	0.0673706
331.696	0.0686203
333.625	0.069584
335.553	0.069976
337.482	0.0700335
339.41	0.0697689
341.339	0.068988
343.267	0.0679883
345.195	0.0665619
347.124	0.064485
349.052	0.0624638
350.981	0.0607904
352.909	0.0593998
354.838	0.0585091
356.766	0.0580718
358.695	0.0580394
360.623	0.0585168
362.552	0.0591558
364.48	0.0599501
366.409	0.0608164
368.337	0.0615671
370.265	0.0625948
372.194	0.0637641
374.122	0.0646168
376.051	0.0649902
377.979	0.0653887
379.908	0.0658122
381.836	0.0664966
383.765	0.067246
385.693	0.0681019
387.622	0.0688257
389.55	0.0695593
391.479	0.0704382
393.407	0.0714576
395.336	0.0721752
397.264	0.0725946
399.192	0.0727568
401.121	0.0727707
403.049	0.0729603
404.978	0.0738586
406.906	0.0751731
408.835	0.076108
410.763	0.0768286
412.692	0.0775439
414.62	0.0783347
416.549	0.0787363
418.477	0.0786928
420.406	0.0787838
422.334	0.0791451
424.262	0.0795836
426.191	0.0792798
428.12	0.0789753
430.048	0.0787946
431.976	0.0788283
433.905	0.0787545
435.833	0.0788038
437.762	0.0788534
439.69	0.0791694
441.619	0.079383
443.547	0.0798196
445.476	0.0804717
447.404	0.0810793
449.333	0.0816695
451.261	0.0822838
453.19	0.0827007
455.118	0.0834156
457.046	0.0843451
458.975	0.0851197
460.903	0.0858068
462.832	0.0866004
464.76	0.0872663
466.689	0.0878117
468.617	0.0882028
470.546	0.0880086
472.474	0.0874769
474.403	0.0872173
476.331	0.0872171
478.26	0.0870376
480.188	0.0868547
482.116	0.0867476
484.045	0.0865828
485.974	0.0867412
487.902	0.0872137
489.83	0.0881333
491.759	0.0889774
493.687	0.0898314
495.616	0.0910211
497.544	0.0916915
499.473	0.0927393
501.401	0.0942326
503.33	0.0953202
505.258	0.0958757
507.187	0.0963871
509.115	0.0961257
511.043	0.0956605
512.972	0.0950278
514.9	0.0936456
516.829	0.0929307
518.757	0.093053
520.686	0.093132
522.614	0.0933307
524.543	0.0940118
526.471	0.0945966
528.4	0.0947259
530.328	0.0943941
532.257	0.0938461
534.185	0.0925799
536.114	0.0904347
538.042	0.0880162
539.971	0.0858903
541.899	0.0839709
543.827	0.0826745
545.756	0.0818086
547.684	0.0811901
549.613	0.0807656
551.541	0.0808994
553.47	0.0815138
555.398	0.0823351
557.327	0.0828767
559.255	0.0833958
561.184	0.0841443
563.112	0.084062
565.041	0.0827038
566.969	0.0809506
568.898	0.0789319
570.826	0.0768342
572.755	0.074773
574.683	0.0736993
576.611	0.0725404
578.54	0.0714962
580.468	0.0712565
582.397	0.0710037
584.325	0.0708749
586.254	0.0713526
588.182	0.0716678
590.111	0.0723472
592.039	0.0727857
593.968	0.0731767
595.896	0.0740695
597.824	0.0748119
599.753	0.0750184
601.682	0.0753692
603.61	0.0758515
605.538	0.0762402
607.467	0.0767534
609.395	0.0780018
611.324	0.0791485
613.252	0.0797444
615.181	0.080118
617.109	0.0812954
619.038	0.0815623
620.966	0.0821654
622.894	0.0832343
624.823	0.0838597
626.751	0.0849923
628.68	0.0864949
630.608	0.0880813
632.537	0.0895305
634.465	0.0903591
636.394	0.0912076
638.322	0.0919236
640.251	0.0930498
642.179	0.0941755
644.108	0.0950419
646.036	0.0964793
647.965	0.0977173
649.893	0.0986194
651.822	0.0994251
653.75	0.100296
655.678	0.101736
657.607	0.103191
659.535	0.103869
661.464	0.104869
663.392	0.106339
665.321	0.108071
667.249	0.109522
669.178	0.110405
671.106	0.111476
673.035	0.112887
674.963	0.113995
676.892	0.115289
678.82	0.11657
680.749	0.117423
682.677	0.118609
684.606	0.119942
686.534	0.120729
688.462	0.122157
690.391	0.123747
692.319	0.125094
694.248	0.126658
696.176	0.127969
698.105	0.129703
700.033	0.129488
