Measurement: Infrared, Infrared Data Processed
Mineral: Wardite
Rruff sample: R050643
Ideal chemistry: NaAl_3_(PO_4_)_2_(OH)_4_2H_2_O
Locality: Big Fish River, Yukon Territory, Canada
Source: Rock Currier
Description: Tan bipyramidal pseudo-octahedral crystals
Measured chemistry: (Na_0.93_[box]_0.05_Ca_0.02_)_Σ=1_(Al_2.97_Fe^3+^_0.03_)_Σ=3_(P_1.00_O_4_)_2_((OH)_3.88_F_0.12_)_Σ=4_·2H_2_O
x	intensity
399.193	0.20141
408.835	0.161854
418.477	0.21662
428.12	0.237598
437.762	0.17423
447.404	0.138332
457.047	0.116315
466.689	0.123568
476.331	0.148023
485.974	0.182291
495.616	0.233701
505.258	0.194452
514.901	0.209394
524.543	0.195593
534.185	0.139761
543.828	0.114006
553.47	0.149409
563.112	0.199793
572.755	0.217404
582.397	0.209628
592.039	0.174306
601.682	0.159282
611.324	0.191591
620.966	0.204443
630.609	0.169449
640.251	0.155642
649.893	0.126191
659.536	0.1246
669.178	0.139387
678.82	0.125358
688.463	0.0883602
698.105	0.0665616
707.747	0.0607522
717.39	0.0656409
727.032	0.0715621
736.674	0.0697787
746.317	0.0593923
755.959	0.0507666
765.601	0.0457033
775.244	0.041994
784.886	0.0412641
794.528	0.0418334
804.171	0.0375963
813.813	0.033287
823.455	0.031662
833.098	0.0333089
842.74	0.0376973
852.382	0.0445575
862.025	0.0556235
871.667	0.0714561
881.309	0.091755
890.952	0.108311
900.594	0.107664
910.236	0.0875531
919.879	0.0703385
929.521	0.0638654
939.163	0.0683549
948.806	0.0823167
958.448	0.110418
968.09	0.157761
977.733	0.22434
987.375	0.300396
997.017	0.268713
1006.66	0.166438
1016.3	0.122866
1025.94	0.154816
1035.59	0.249975
1045.23	0.317063
1054.87	0.321199
1064.51	0.295468
1074.16	0.251419
1083.8	0.240468
1093.44	0.183631
1103.08	0.136304
1112.72	0.104013
1122.37	0.111237
1132.01	0.142955
1141.65	0.110709
1151.3	0.061602
1160.94	0.0803889
1170.58	0.0649158
1180.22	0.0343872
1189.86	0.0185418
1199.51	0.0118004
1209.15	0.00908932
1218.79	0.00723113
1228.43	0.00609853
1238.08	0.00563419
1247.72	0.00520594
1257.36	0.00488358
1267	0.0049098
1276.64	0.00523478
1286.29	0.00509622
1295.93	0.00478635
1305.57	0.00518913
1315.21	0.00504484
1324.86	0.0050894
1334.5	0.00520161
1344.14	0.00550943
1353.78	0.00523577
1363.43	0.00565665
1373.07	0.00585946
1382.71	0.00598732
1392.35	0.00694922
1401.99	0.00732806
1411.64	0.00749147
1421.28	0.00792532
1430.92	0.00860209
1440.57	0.00924913
1450.21	0.00978245
1459.85	0.0111025
1469.49	0.0113416
1479.13	0.0128912
1488.78	0.0142371
1498.42	0.0154677
1508.06	0.0164889
1517.7	0.0170241
1527.35	0.0182195
1536.99	0.018844
1546.63	0.0197983
1556.27	0.0194181
1565.91	0.0186731
1575.56	0.0177627
1585.2	0.0167437
1594.84	0.0162504
1604.48	0.015725
1614.13	0.0154866
1623.77	0.0149514
1633.41	0.0151892
1643.05	0.0152398
1652.7	0.014809
1662.34	0.0151224
1671.98	0.0148265
1681.62	0.0144335
1691.27	0.0140027
1700.91	0.0132558
1710.55	0.0132076
1720.19	0.0124207
1729.84	0.0128424
1739.48	0.0115934
1749.12	0.0112051
1758.76	0.0112233
1768.4	0.0110185
1778.05	0.0101651
1787.69	0.00949158
1797.33	0.00883788
1806.97	0.00915408
1816.62	0.00795489
1826.26	0.00866946
1835.9	0.00802502
1845.54	0.00771875
1855.18	0.00776832
1864.83	0.00707641
1874.47	0.00725586
1884.11	0.00656745
1893.75	0.00762577
1903.4	0.00775054
1913.04	0.00789474
1922.68	0.00633425
1932.32	0.00741954
1941.97	0.00488887
1951.61	0.00368165
1961.25	0.00193743
1970.89	3.7681e-05
1980.54	0.00412266
1990.18	0.00273163
1999.82	0.00309072
2009.46	0.00420174
2019.11	0.00452635
2028.75	0.00680121
2038.39	0.00537661
2048.03	0.0102172
2057.67	0.00835921
2067.32	0.00491057
2076.96	0.00709857
2086.6	0.00707153
2096.24	0.00503802
2105.89	0.00490537
2115.53	0.00674395
2125.17	0.00582211
2134.81	0.00225622
2144.45	0.00266059
2154.1	-0.00462195
2163.74	0.00132583
2173.38	0.00277614
2183.02	0.00339238
2192.67	0.00682118
2202.31	0.0070708
2211.95	0.0104574
2221.59	0.0102452
2231.24	0.0105886
2240.88	0.0126783
2250.52	0.014348
2260.16	0.0143483
2269.8	0.0147837
2279.45	0.0159538
2289.09	0.0186033
2298.73	0.0188717
2308.38	0.0194765
2318.02	0.0199363
2327.66	0.0186367
2337.3	0.0168662
2346.94	0.0177172
2356.59	0.0177453
2366.23	0.0187599
2375.87	0.0188207
2385.51	0.0179701
2395.16	0.018184
2404.8	0.0212792
2414.44	0.020645
2424.08	0.0199147
2433.72	0.0196149
2443.37	0.0213758
2453.01	0.0190958
2462.65	0.0205444
2472.29	0.0204587
2481.94	0.0204982
2491.58	0.021361
2501.22	0.0201542
2510.86	0.0222245
2520.51	0.0235966
2530.15	0.0225132
2539.79	0.0220634
2549.43	0.0231913
2559.07	0.0227176
2568.72	0.0241087
2578.36	0.0250389
2588	0.0260679
2597.64	0.0275732
2607.29	0.0287777
2616.93	0.026374
2626.57	0.0274007
2636.21	0.0284459
2645.86	0.0292149
2655.5	0.0299936
2665.14	0.0294505
2674.78	0.0302786
2684.43	0.0317662
2694.07	0.0329856
2703.71	0.0339005
2713.35	0.0354132
2722.99	0.0364924
2732.64	0.0383256
2742.28	0.0413028
2751.92	0.0407287
2761.56	0.0435706
2771.21	0.045094
2780.85	0.0481864
2790.49	0.0502988
2800.13	0.0527571
2809.78	0.0547316
2819.42	0.0583212
2829.06	0.0610867
2838.7	0.0643294
2848.34	0.06636
2857.99	0.06895
2867.63	0.0700928
2877.27	0.0707647
2886.91	0.0722638
2896.56	0.0706122
2906.2	0.0703199
2915.84	0.0673643
2925.48	0.0627663
2935.13	0.062302
2944.77	0.0629493
2954.41	0.0596681
2964.05	0.0589372
2973.7	0.0586276
2983.34	0.0558
2992.98	0.0552937
3002.62	0.0533207
3012.26	0.0523488
3021.91	0.0515358
3031.55	0.0508183
3041.19	0.050793
3050.83	0.0500389
3060.48	0.0486537
3070.12	0.0483382
3079.76	0.0472636
3089.4	0.0485313
3099.05	0.047667
3108.69	0.0495622
3118.33	0.0465746
3127.97	0.0453276
3137.61	0.0453164
3147.26	0.0455143
3156.9	0.0459252
3166.54	0.0462286
3176.18	0.045681
3185.83	0.0492767
3195.47	0.0467069
3205.11	0.0505326
3214.75	0.0504894
3224.4	0.0553134
3234.04	0.0617231
3243.68	0.0659001
3253.32	0.075588
3262.97	0.0813757
3272.61	0.0768084
3282.25	0.0740233
3291.89	0.0636328
3301.53	0.0579284
3311.18	0.0551161
3320.82	0.0461468
3330.46	0.0431902
3340.1	0.0398973
3349.75	0.0426733
3359.39	0.0404821
3369.03	0.0337539
3378.67	0.0347322
3388.32	0.035192
3397.96	0.0297753
3407.6	0.0290689
3417.24	0.0283345
3426.89	0.0267676
3436.53	0.0287991
3446.17	0.0249652
3455.81	0.0252918
3465.45	0.0255892
3475.1	0.0239463
3484.74	0.0261211
3494.38	0.020449
3504.02	0.0288899
3513.67	0.029957
3523.31	0.0353887
3532.95	0.0624398
3542.59	0.210169
3552.24	0.0538164
3561.88	0.0161607
3571.52	0.0187671
3581.16	0.0181845
3590.8	0.0285508
3600.45	0.0504066
3610.09	0.154591
3619.73	0.0294147
3629.37	0.0108682
3639.02	0.00986885
3648.66	0.0122132
3658.3	0.0105209
3667.94	0.00517894
3677.59	0.0107332
3687.23	0.0104936
3696.87	0.0142192
3706.51	0.0122816
3716.16	0.011812
3725.8	0.00684461
3735.44	0.0156656
3745.08	0.0132047
3754.72	0.0126053
3764.37	0.00983168
3774.01	0.0110923
3783.65	0.0136877
3793.29	0.0116737
3802.94	0.0100856
3812.58	0.0127446
3822.22	0.0181726
3831.86	0.0115849
3841.51	0.0162526
3851.15	0.0118283
3860.79	0.0115762
3870.43	0.0113893
3880.07	0.0122039
3889.72	0.0128226
3899.36	0.00867922
3909	0.0100146
3918.64	0.0159932
3928.29	0.0166414
3937.93	0.0127993
3947.57	0.0144693
3957.21	0.0118701
3966.86	0.0135748
3976.5	0.0130226
3986.14	0.0108169
3995.78	0.0131711
