Measurement: Infrared, Infrared Data Processed
Mineral: Weloganite
Rruff sample: R050217
Ideal chemistry: Na_2_Sr_3_Zr^4+^(C^4+^O_3_)_6_3H_2_O
Locality: Francon Quarry, Montréal, Québec, Canada
Source: Marcus Origlieri
Description: Tan colored tapered hexagonal single crystals
Measured chemistry: Na_2.00_(Sr_2.93_Ca_0.07_)_Σ=3_(Zr_0.90_Hf_0.10_)_Σ=1_(CO_3_)_6_·3H_2_O
x	intensity
374.123	0.0345317
383.765	0.0241934
393.407	0.0232439
403.05	0.0215819
412.692	0.0209966
422.334	0.0216467
431.976	0.0220456
441.619	0.0221199
451.261	0.0247066
460.904	0.024418
470.546	0.0264102
480.188	0.0273771
489.83	0.0297806
499.473	0.0315182
509.115	0.0342936
518.758	0.0380699
528.4	0.0438608
538.042	0.0480504
547.684	0.0489652
557.327	0.0462287
566.969	0.0415285
576.611	0.0384444
586.254	0.0382377
595.896	0.0392487
605.538	0.0421698
615.181	0.0464888
624.823	0.0520341
634.466	0.060124
644.108	0.0686617
653.75	0.0705391
663.393	0.0702979
673.035	0.071319
682.677	0.0611625
692.319	0.0448098
701.962	0.0694341
711.604	0.0658075
721.246	0.0491098
730.889	0.0419331
740.531	0.0473479
750.173	0.0891926
759.816	0.04071
769.458	0.0236421
779.101	0.0207383
788.743	0.019264
798.385	0.0189277
808.028	0.0185302
817.67	0.0190369
827.312	0.023064
836.955	0.0300006
846.597	0.132125
856.239	0.0545554
865.881	0.0400897
875.524	0.0204888
885.166	0.0129794
894.808	0.0113123
904.451	0.0116631
914.093	0.0118897
923.736	0.0125918
933.378	0.0131313
943.02	0.0133601
952.663	0.0142328
962.305	0.0150199
971.947	0.0158401
981.59	0.0165669
991.232	0.0173805
1000.87	0.0184088
1010.52	0.0198061
1020.16	0.0215257
1029.8	0.0234865
1039.44	0.0299214
1049.09	0.0517441
1058.73	0.120014
1068.37	0.0923179
1078.01	0.0535485
1087.65	0.0219052
1097.3	0.015839
1106.94	0.0149089
1116.58	0.0147324
1126.22	0.0148307
1135.87	0.0157369
1145.51	0.0166064
1155.15	0.0173982
1164.79	0.0182918
1174.44	0.0192478
1184.08	0.0203396
1193.72	0.0214947
1203.36	0.0224661
1213.01	0.0244345
1222.65	0.0269697
1232.29	0.0299959
1241.93	0.033973
1251.58	0.038928
1261.22	0.0456684
1270.86	0.0554073
1280.5	0.068851
1290.14	0.0853592
1299.79	0.109794
1309.43	0.145796
1319.07	0.199795
1328.71	0.271798
1338.36	0.348017
1348	0.395498
1357.64	0.333675
1367.28	0.244211
1376.92	0.169214
1386.57	0.106445
1396.21	0.0801735
1405.85	0.0884658
1415.49	0.101627
1425.14	0.0808947
1434.78	0.0810405
1444.42	0.0878394
1454.06	0.0956072
1463.71	0.102818
1473.35	0.111789
1482.99	0.124008
1492.63	0.143008
1502.28	0.177192
1511.92	0.254436
1521.56	0.326899
1531.2	0.298244
1540.85	0.254854
1550.49	0.307251
1560.13	0.257064
1569.77	0.199799
1579.41	0.14887
1589.06	0.109241
1598.7	0.0882523
1608.34	0.08702
1617.98	0.074217
1627.63	0.0430861
1637.27	0.0294038
1646.91	0.0234435
1656.55	0.0212794
1666.19	0.0256043
1675.84	0.0469247
1685.48	0.0392163
1695.12	0.0200981
1704.77	0.00965017
1714.41	0.00610597
1724.05	0.00429988
1733.69	0.0048675
1743.33	0.00282529
1752.98	0.00145771
1762.62	0.00190232
1772.26	0.00189253
1781.9	0.000898486
1791.55	0.000911787
1801.19	0.000425519
1810.83	0.000142993
1820.47	0.000809783
1830.12	0.00038958
1839.76	-0.00104372
1849.4	-0.00133255
1859.04	-0.00181423
1868.68	-0.00143317
1878.33	-0.00166903
1887.97	-0.00186374
1897.61	-0.00184873
1907.25	-0.00146148
1916.9	-0.00134529
1926.54	-0.00147155
1936.18	-0.00142191
1945.82	-0.00164851
1955.46	-0.00182066
1965.11	-0.00082431
1974.75	-0.000578873
1984.39	-0.00102379
1994.04	-0.00137542
2003.68	-0.00144577
2013.32	-0.00116624
2022.96	-0.00104322
2032.6	-0.00136255
2042.25	-0.00207423
2051.89	-0.000862478
2061.53	-0.0014556
2071.17	-0.00231179
2080.82	-0.00171966
2090.46	-0.00265203
2100.1	-0.00256421
2109.74	-0.0040755
2119.39	-0.00415292
2129.03	-0.00492784
2138.67	-0.00385013
2148.31	-0.00381326
2157.95	-0.00485808
2167.6	-0.00300694
2177.24	-0.00126738
2186.88	-0.000981908
2196.52	-0.000605917
2206.17	-0.00045245
2215.81	-5.93205e-05
2225.45	0.000890651
2235.09	-0.000263017
2244.74	-0.000256196
2254.38	-0.000240419
2264.02	-0.000168172
2273.66	-0.000517194
2283.3	-0.000317095
2292.95	-0.000427493
2302.59	0.000107733
2312.23	-0.00021258
2321.87	0.000883425
2331.52	0.00123362
2341.16	0.000899924
2350.8	-0.00048258
2360.44	0.00117196
2370.09	0.000405219
2379.73	-0.000502074
2389.37	-0.000820188
2399.01	-0.00018265
2408.66	0.000812047
2418.3	0.000886509
2427.94	0.00105552
2437.58	0.000487783
2447.22	0.000452964
2456.87	-0.000378063
2466.51	-0.000463691
2476.15	-0.00125177
2485.79	-0.00116557
2495.44	-0.00200661
2505.08	-0.00219074
2514.72	-0.0025827
2524.36	-0.00305838
2534.01	-0.00288015
2543.65	-0.00333957
2553.29	-0.00291228
2562.93	-0.00325668
2572.57	-0.00284016
2582.22	-0.00231276
2591.86	-0.00254531
2601.5	-0.00248022
2611.14	-0.00131984
2620.79	-0.00147484
2630.43	-0.0025791
2640.07	-0.00298997
2649.71	-0.00330278
2659.36	-0.00316261
2669	-0.00327585
2678.64	-0.00374507
2688.28	-0.0036956
2697.93	-0.00407861
2707.57	-0.00421494
2717.21	-0.00382089
2726.85	-0.00368783
2736.49	-0.00309917
2746.14	-0.00228195
2755.78	-0.00210923
2765.42	-0.00197153
2775.06	-0.000818069
2784.71	-0.000824415
2794.35	-0.00082949
2803.99	-0.000380861
2813.63	-0.000289995
2823.28	-0.000112438
2832.92	0.00057666
2842.56	0.00225781
2852.2	0.0047285
2861.84	0.00479474
2871.49	0.00458637
2881.13	0.00411886
2890.77	0.00515699
2900.41	0.00689786
2910.06	0.00826497
2919.7	0.0115233
2929.34	0.0119279
2938.98	0.00826371
2948.62	0.00785174
2958.27	0.0083207
2967.91	0.00662626
2977.55	0.00440509
2987.2	0.00390898
2996.84	0.00356508
3006.48	0.00347527
3016.12	0.00369896
3025.76	0.00356552
3035.41	0.00322355
3045.05	0.00380962
3054.69	0.00442324
3064.33	0.00613712
3073.98	0.00729548
3083.62	0.00836603
3093.26	0.00772683
3102.9	0.00951294
3112.55	0.0111953
3122.19	0.0119402
3131.83	0.0134699
3141.47	0.0146162
3151.11	0.0162456
3160.76	0.0174084
3170.4	0.0196544
3180.04	0.0216503
3189.68	0.0227307
3199.33	0.0244641
3208.97	0.0268936
3218.61	0.0280896
3228.25	0.0297858
3237.9	0.0327761
3247.54	0.0352454
3257.18	0.0387198
3266.82	0.0435231
3276.47	0.0471795
3286.11	0.0515128
3295.75	0.0581675
3305.39	0.064834
3315.03	0.0722933
3324.68	0.0757029
3334.32	0.0757598
3343.96	0.0830062
3353.6	0.100374
3363.25	0.1176
3372.89	0.126219
3382.53	0.125877
3392.17	0.116042
3401.82	0.0977708
3411.46	0.0801881
3421.1	0.0640374
3430.74	0.0522377
3440.39	0.0425338
3450.03	0.0354059
3459.67	0.0296918
3469.31	0.0257676
3478.95	0.0234409
3488.6	0.0197106
3498.24	0.017147
3507.88	0.0150155
3517.52	0.0132339
3527.17	0.0101769
3536.81	0.00900841
3546.45	0.00652422
3556.09	0.00543871
3565.74	0.00379718
3575.38	0.00276059
3585.02	0.00126606
3594.66	0.000782244
3604.3	-0.00149711
3613.95	-0.0020738
3623.59	-0.0029006
3633.23	-0.00456196
3642.87	-0.00490898
3652.52	-0.00546358
3662.16	-0.00661007
3671.8	-0.00558457
3681.44	-0.00798333
3691.09	-0.00764789
3700.73	-0.00729086
3710.37	-0.00678866
3720.01	-0.00766416
3729.66	-0.00802911
3739.3	-0.0080315
3748.94	-0.00605563
3758.58	-0.00805012
3768.22	-0.00755123
3777.87	-0.00816615
3787.51	-0.00862873
3797.15	-0.00769999
3806.79	-0.00781232
3816.44	-0.00747941
3826.08	-0.00830859
3835.72	-0.00737234
3845.36	-0.00794092
3855.01	-0.00711485
3864.65	-0.0082425
3874.29	-0.00842363
3883.93	-0.00748986
3893.57	-0.00849444
3903.22	-0.00848884
3912.86	-0.00880687
3922.5	-0.00868065
3932.14	-0.00855512
3941.79	-0.00860235
3951.43	-0.00783091
3961.07	-0.00819868
3970.71	-0.00937445
3980.36	-0.00891471
3990	-0.00852853
3999.64	-0.00914181
