Measurement: Infrared, Infrared Data Processed
Mineral: Willemite
Rruff sample: R050652
Ideal chemistry: Zn^2+^_2_SiO_4_
Locality: Franklin Furnace, Sussex County, New Jersey, USA
Source: University of Arizona Mineral Museum
Description: Parallel aggregate of colorless acicular crystals
Measured chemistry: (Zn_1.99_Mn_0.01_)_Î£=2_Si_1.00_O_4_
x	intensity
399.193	0.108782
408.835	0.0444162
418.477	0.024187
428.12	0.0216935
437.762	0.026378
447.404	0.0405819
457.047	0.107837
466.689	0.0429775
476.331	0.0366013
485.974	0.0426315
495.616	0.0546423
505.258	0.0702593
514.901	0.0875337
524.543	0.115201
534.185	0.148847
543.828	0.187677
553.47	0.231217
563.112	0.276895
572.755	0.299693
582.397	0.226238
592.039	0.17245
601.682	0.14614
611.324	0.166149
620.966	0.0941145
630.609	0.0407168
640.251	0.0246234
649.893	0.0196127
659.536	0.0201925
669.178	0.0209326
678.82	0.0213878
688.463	0.0213312
698.105	0.0222715
707.747	0.0237099
717.39	0.0270928
727.032	0.0308463
736.674	0.0363963
746.317	0.0437657
755.959	0.0526636
765.601	0.0639654
775.244	0.0769435
784.886	0.0927533
794.528	0.110411
804.171	0.133335
813.813	0.160175
823.455	0.192578
833.098	0.230146
842.74	0.271441
852.382	0.310209
862.025	0.339944
871.667	0.293155
881.309	0.297582
890.952	0.33945
900.594	0.309152
910.236	0.254841
919.879	0.195203
929.521	0.24331
939.163	0.17431
948.806	0.121307
958.448	0.0899074
968.09	0.104023
977.733	0.109625
987.375	0.0674666
997.017	0.0363684
1006.66	0.0211296
1016.3	0.0150914
1025.94	0.0120083
1035.59	0.0105467
1045.23	0.00953416
1054.87	0.00922908
1064.51	0.00813851
1074.16	0.00850805
1083.8	0.00782588
1093.44	0.00728134
1103.08	0.00639422
1112.72	0.00551052
1122.37	0.00500569
1132.01	0.00500833
1141.65	0.00456014
1151.3	0.00437194
1160.94	0.00501843
1170.58	0.00397517
1180.22	0.00469687
1189.86	0.00431899
1199.51	0.0055182
1209.15	0.00645074
1218.79	0.00906377
1228.43	0.0139838
1238.08	0.00755289
1247.72	0.00749869
1257.36	0.00476438
1267	0.00639966
1276.64	0.00497922
1286.29	0.00452314
1295.93	0.00396868
1305.57	0.00351219
1315.21	0.00352208
1324.86	0.00373291
1334.5	0.00412647
1344.14	0.00427929
1353.78	0.00464727
1363.43	0.0057466
1373.07	0.00546002
1382.71	0.00659154
1392.35	0.00618976
1401.99	0.00690445
1411.64	0.00854175
1421.28	0.00924544
1430.92	0.00976886
1440.57	0.0107374
1450.21	0.0112139
1459.85	0.0112063
1469.49	0.0108745
1479.13	0.0102602
1488.78	0.0101514
1498.42	0.00939771
1508.06	0.00839298
1517.7	0.00881543
1527.35	0.00826953
1536.99	0.00703904
1546.63	0.00729142
1556.27	0.00759512
1565.91	0.0064132
1575.56	0.00676975
1585.2	0.00734636
1594.84	0.0077142
1604.48	0.00796413
1614.13	0.0075034
1623.77	0.00761348
1633.41	0.00758566
1643.05	0.00767308
1652.7	0.00644641
1662.34	0.00759307
1671.98	0.00780297
1681.62	0.00809396
1691.27	0.00732912
1700.91	0.00763303
1710.55	0.00817955
1720.19	0.00866163
1729.84	0.0106597
1739.48	0.0108392
1749.12	0.00982891
1758.76	0.00956792
1768.4	0.0101273
1778.05	0.0100411
1787.69	0.011147
1797.33	0.00911432
1806.97	0.0107563
1816.62	0.00994324
1826.26	0.00939161
1835.9	0.00967262
1845.54	0.00928222
1855.18	0.00955698
1864.83	0.00852747
1874.47	0.00960869
1884.11	0.00951107
1893.75	0.0104136
1903.4	0.00902571
1913.04	0.00981589
1922.68	0.00990959
1932.32	0.0108779
1941.97	0.0130444
1951.61	0.0136096
1961.25	0.00931693
1970.89	0.00865481
1980.54	0.0134565
1990.18	0.0110277
1999.82	0.0115594
2009.46	0.011505
2019.11	0.00933539
2028.75	0.0125562
2038.39	0.0174419
2048.03	0.0136701
2057.67	0.0100929
2067.32	0.0165603
2076.96	0.0140448
2086.6	0.0146242
2096.24	0.012826
2105.89	0.0155749
2115.53	0.013705
2125.17	0.00990258
2134.81	0.0136063
2144.45	0.0107914
2154.1	0.00801247
2163.74	0.0178523
2173.38	0.0196634
2183.02	0.0177605
2192.67	0.0152656
2202.31	0.0174893
2211.95	0.0135271
2221.59	0.0125528
2231.24	0.018039
2240.88	0.0150894
2250.52	0.014922
2260.16	0.0156088
2269.8	0.0162739
2279.45	0.0168363
2289.09	0.0163474
2298.73	0.016521
2308.38	0.0164397
2318.02	0.0153292
2327.66	0.0154678
2337.3	0.0155412
2346.94	0.0150768
2356.59	0.0152771
2366.23	0.0137
2375.87	0.016034
2385.51	0.016877
2395.16	0.0165261
2404.8	0.0169464
2414.44	0.0184651
2424.08	0.0167367
2433.72	0.0183918
2443.37	0.0184376
2453.01	0.0185437
2462.65	0.0177819
2472.29	0.0169119
2481.94	0.0170967
2491.58	0.0193508
2501.22	0.0180204
2510.86	0.0171245
2520.51	0.0178928
2530.15	0.0163995
2539.79	0.0211335
2549.43	0.018154
2559.07	0.0162441
2568.72	0.0186065
2578.36	0.0201255
2588	0.0220134
2597.64	0.0196894
2607.29	0.0203011
2616.93	0.0211666
2626.57	0.0216999
2636.21	0.0209424
2645.86	0.0214003
2655.5	0.0199778
2665.14	0.0198147
2674.78	0.019649
2684.43	0.0193054
2694.07	0.020678
2703.71	0.0204421
2713.35	0.0213921
2722.99	0.0204981
2732.64	0.0204216
2742.28	0.0208118
2751.92	0.0211854
2761.56	0.0217348
2771.21	0.0211594
2780.85	0.0213324
2790.49	0.0219093
2800.13	0.0234501
2809.78	0.0228865
2819.42	0.0214391
2829.06	0.0223976
2838.7	0.0250863
2848.34	0.0244186
2857.99	0.0253465
2867.63	0.0254053
2877.27	0.0253914
2886.91	0.0246785
2896.56	0.0246443
2906.2	0.0260276
2915.84	0.0277158
2925.48	0.0299303
2935.13	0.0276785
2944.77	0.0279276
2954.41	0.0281564
2964.05	0.0293241
2973.7	0.0271089
2983.34	0.027534
2992.98	0.0258958
3002.62	0.0273568
3012.26	0.0263549
3021.91	0.0265866
3031.55	0.0269296
3041.19	0.027083
3050.83	0.026889
3060.48	0.0281059
3070.12	0.0265847
3079.76	0.0273646
3089.4	0.0275053
3099.05	0.030605
3108.69	0.0286475
3118.33	0.026142
3127.97	0.0245618
3137.61	0.0291635
3147.26	0.0287684
3156.9	0.0300815
3166.54	0.0279783
3176.18	0.0285533
3185.83	0.0291877
3195.47	0.0318327
3205.11	0.0299393
3214.75	0.0296811
3224.4	0.0279395
3234.04	0.0302074
3243.68	0.0317805
3253.32	0.0320668
3262.97	0.0331033
3272.61	0.0300472
3282.25	0.031951
3291.89	0.0309899
3301.53	0.0297566
3311.18	0.033173
3320.82	0.0313401
3330.46	0.0288401
3340.1	0.0318152
3349.75	0.0321347
3359.39	0.0318712
3369.03	0.0294824
3378.67	0.0273702
3388.32	0.0281066
3397.96	0.0294318
3407.6	0.028903
3417.24	0.0292561
3426.89	0.0319871
3436.53	0.0305579
3446.17	0.0334285
3455.81	0.0338706
3465.45	0.0324177
3475.1	0.0315429
3484.74	0.0310967
3494.38	0.0310841
3504.02	0.0299604
3513.67	0.0322538
3523.31	0.0298095
3532.95	0.0309938
3542.59	0.0304628
3552.24	0.0340631
3561.88	0.03311
3571.52	0.0300212
3581.16	0.0324181
3590.8	0.0325696
3600.45	0.0329325
3610.09	0.0301662
3619.73	0.032303
3629.37	0.0271529
3639.02	0.0298509
3648.66	0.0317682
3658.3	0.0276411
3667.94	0.0346242
3677.59	0.0306459
3687.23	0.0253049
3696.87	0.0331934
3706.51	0.033422
3716.16	0.0279165
3725.8	0.0283063
3735.44	0.0293429
3745.08	0.026927
3754.72	0.0320359
3764.37	0.0304593
3774.01	0.033185
3783.65	0.0306159
3793.29	0.0249764
3802.94	0.0274979
3812.58	0.0319444
3822.22	0.0349221
3831.86	0.0276265
3841.51	0.0297304
3851.15	0.0340583
3860.79	0.0263501
3870.43	0.0310377
3880.07	0.0273618
3889.72	0.0248053
3899.36	0.0250829
3909	0.026932
3918.64	0.0241883
3928.29	0.0258133
3937.93	0.0263863
3947.57	0.027644
3957.21	0.0287725
3966.86	0.0270209
3976.5	0.0269338
3986.14	0.0256808
3995.78	0.0303454
