Measurement: Infrared, Infrared Data Processed
Mineral: Wolfeite
Rruff sample: R050614
Ideal chemistry: Fe^2+^_2_PO_4_(OH)
Locality: Hagendorf, Bavaria
Source: University of Arizona Mineral Museum
Description: Reddish-brown elongated prismatic crystals
Measured chemistry: (Fe^2+^_1.49_Mn^2+^_0.49_Mg_0.02_)_Î£=2_(P_1.00_O_4_)(OH)
x	intensity
399.193	0.156574
408.835	0.168104
418.477	0.205738
428.12	0.183867
437.762	0.177677
447.404	0.182118
457.047	0.207025
466.689	0.22685
476.331	0.252095
485.974	0.266036
495.616	0.234872
505.258	0.191231
514.901	0.177488
524.543	0.185659
534.185	0.236836
543.828	0.34169
553.47	0.455588
563.112	0.453974
572.755	0.344708
582.397	0.251967
592.039	0.245696
601.682	0.189095
611.324	0.150607
620.966	0.121306
630.609	0.0826955
640.251	0.0642402
649.893	0.058448
659.536	0.0581481
669.178	0.0600326
678.82	0.0624069
688.463	0.0684423
698.105	0.0727678
707.747	0.0744989
717.39	0.0730005
727.032	0.0742524
736.674	0.0798049
746.317	0.0850619
755.959	0.0874265
765.601	0.0862287
775.244	0.0851517
784.886	0.0851644
794.528	0.0880559
804.171	0.093831
813.813	0.101763
823.455	0.115275
833.098	0.133561
842.74	0.15803
852.382	0.185247
862.025	0.207773
871.667	0.219262
881.309	0.218611
890.952	0.217338
900.594	0.221861
910.236	0.234417
919.879	0.248695
929.521	0.263274
939.163	0.287163
948.806	0.313256
958.448	0.295006
968.09	0.300924
977.733	0.352395
987.375	0.390391
997.017	0.403854
1006.66	0.38405
1016.3	0.368517
1025.94	0.352846
1035.59	0.310155
1045.23	0.267654
1054.87	0.239309
1064.51	0.197387
1074.16	0.163806
1083.8	0.153479
1093.44	0.122134
1103.08	0.0867091
1112.72	0.0701422
1122.37	0.0515274
1132.01	0.0342186
1141.65	0.0233924
1151.3	0.0174965
1160.94	0.0145062
1170.58	0.0120001
1180.22	0.010099
1189.86	0.0085753
1199.51	0.00715891
1209.15	0.00591066
1218.79	0.00518764
1228.43	0.00489417
1238.08	0.00481704
1247.72	0.00446275
1257.36	0.00420853
1267	0.00433057
1276.64	0.00430112
1286.29	0.00424249
1295.93	0.00404021
1305.57	0.00430637
1315.21	0.00424798
1324.86	0.00439188
1334.5	0.00451226
1344.14	0.00469691
1353.78	0.00488489
1363.43	0.00479707
1373.07	0.00508639
1382.71	0.00538788
1392.35	0.00597361
1401.99	0.00581528
1411.64	0.00620389
1421.28	0.0062817
1430.92	0.00660478
1440.57	0.00668384
1450.21	0.00660057
1459.85	0.006286
1469.49	0.00627404
1479.13	0.00670571
1488.78	0.00680334
1498.42	0.00677066
1508.06	0.00710909
1517.7	0.00729502
1527.35	0.00760303
1536.99	0.00767051
1546.63	0.00792487
1556.27	0.00835326
1565.91	0.00863303
1575.56	0.0086839
1585.2	0.00860349
1594.84	0.00859064
1604.48	0.00861231
1614.13	0.00877129
1623.77	0.00890533
1633.41	0.00880865
1643.05	0.00891707
1652.7	0.00914749
1662.34	0.00866899
1671.98	0.0085458
1681.62	0.00847683
1691.27	0.00840812
1700.91	0.00803792
1710.55	0.00759713
1720.19	0.00844014
1729.84	0.00791991
1739.48	0.00698159
1749.12	0.00679116
1758.76	0.007431
1768.4	0.00766434
1778.05	0.00762124
1787.69	0.00738968
1797.33	0.0077267
1806.97	0.00768589
1816.62	0.00777885
1826.26	0.00796725
1835.9	0.00778414
1845.54	0.00815094
1855.18	0.0080094
1864.83	0.00781575
1874.47	0.00767614
1884.11	0.0082746
1893.75	0.00797913
1903.4	0.0075887
1913.04	0.00691271
1922.68	0.00741613
1932.32	0.00744782
1941.97	0.00686013
1951.61	0.00618557
1961.25	0.00492821
1970.89	0.0030153
1980.54	0.00575259
1990.18	0.00462899
1999.82	0.00467011
2009.46	0.00568494
2019.11	0.00488733
2028.75	0.00357914
2038.39	0.00533223
2048.03	0.00522765
2057.67	0.00690924
2067.32	0.00612504
2076.96	0.00712004
2086.6	0.00659092
2096.24	0.00646801
2105.89	0.0081262
2115.53	0.00760795
2125.17	0.00645291
2134.81	0.005884
2144.45	0.00581229
2154.1	0.00252768
2163.74	0.00562452
2173.38	0.00516166
2183.02	0.00641565
2192.67	0.00699974
2202.31	0.0071516
2211.95	0.00741162
2221.59	0.00732012
2231.24	0.00912072
2240.88	0.00826062
2250.52	0.00915107
2260.16	0.0090856
2269.8	0.00898779
2279.45	0.0102048
2289.09	0.010409
2298.73	0.010016
2308.38	0.0100491
2318.02	0.0106923
2327.66	0.010388
2337.3	0.0102562
2346.94	0.00991503
2356.59	0.0103945
2366.23	0.0105265
2375.87	0.0105893
2385.51	0.0104618
2395.16	0.0104932
2404.8	0.0106408
2414.44	0.0112212
2424.08	0.0104044
2433.72	0.0111043
2443.37	0.011191
2453.01	0.0108222
2462.65	0.0107416
2472.29	0.0106838
2481.94	0.0107099
2491.58	0.0106093
2501.22	0.0107053
2510.86	0.0109726
2520.51	0.0110655
2530.15	0.0109427
2539.79	0.0108493
2549.43	0.011092
2559.07	0.0114413
2568.72	0.0116737
2578.36	0.0112085
2588	0.0115484
2597.64	0.0113672
2607.29	0.0114002
2616.93	0.0112109
2626.57	0.0122839
2636.21	0.0118374
2645.86	0.0120809
2655.5	0.011971
2665.14	0.0115369
2674.78	0.0117894
2684.43	0.0118733
2694.07	0.0113692
2703.71	0.0119779
2713.35	0.0120387
2722.99	0.0123153
2732.64	0.0120721
2742.28	0.0121627
2751.92	0.0121794
2761.56	0.0118383
2771.21	0.0122936
2780.85	0.0123295
2790.49	0.0123565
2800.13	0.0122373
2809.78	0.0122894
2819.42	0.0122712
2829.06	0.0123312
2838.7	0.0117468
2848.34	0.0112569
2857.99	0.0107206
2867.63	0.0119298
2877.27	0.0122264
2886.91	0.0121023
2896.56	0.0117423
2906.2	0.0118952
2915.84	0.010776
2925.48	0.00954562
2935.13	0.0112217
2944.77	0.012066
2954.41	0.0122214
2964.05	0.0128303
2973.7	0.0132664
2983.34	0.0137826
2992.98	0.0130083
3002.62	0.0133058
3012.26	0.0130739
3021.91	0.0132897
3031.55	0.0134666
3041.19	0.0136733
3050.83	0.0132638
3060.48	0.013495
3070.12	0.0136401
3079.76	0.0135003
3089.4	0.0141186
3099.05	0.0134441
3108.69	0.0131498
3118.33	0.0130714
3127.97	0.0136342
3137.61	0.013257
3147.26	0.0136623
3156.9	0.013682
3166.54	0.014227
3176.18	0.014339
3185.83	0.013786
3195.47	0.0152745
3205.11	0.0142845
3214.75	0.0148708
3224.4	0.0140396
3234.04	0.0141732
3243.68	0.0135718
3253.32	0.0152672
3262.97	0.0152936
3272.61	0.0145306
3282.25	0.0151797
3291.89	0.0150364
3301.53	0.0146497
3311.18	0.0153621
3320.82	0.0149513
3330.46	0.0151353
3340.1	0.0151595
3349.75	0.0150214
3359.39	0.0149331
3369.03	0.0143085
3378.67	0.015846
3388.32	0.0152048
3397.96	0.015187
3407.6	0.015217
3417.24	0.0149529
3426.89	0.0161855
3436.53	0.0160791
3446.17	0.0159629
3455.81	0.0171478
3465.45	0.0195277
3475.1	0.022751
3484.74	0.0255834
3494.38	0.0251183
3504.02	0.0251152
3513.67	0.024379
3523.31	0.0201118
3532.95	0.0181917
3542.59	0.0179798
3552.24	0.01329
3561.88	0.0107194
3571.52	0.0105254
3581.16	0.0112744
3590.8	0.0117149
3600.45	0.0115539
3610.09	0.0108453
3619.73	0.0110578
3629.37	0.00991235
3639.02	0.0117035
3648.66	0.0113503
3658.3	0.0104566
3667.94	0.0105519
3677.59	0.0113608
3687.23	0.0115703
3696.87	0.0111782
3706.51	0.0102526
3716.16	0.0111823
3725.8	0.0108205
3735.44	0.011488
3745.08	0.0112094
3754.72	0.0103562
3764.37	0.0112889
3774.01	0.0103915
3783.65	0.0102004
3793.29	0.010895
3802.94	0.0117874
3812.58	0.0123669
3822.22	0.0121129
3831.86	0.0125386
3841.51	0.0104208
3851.15	0.0113111
3860.79	0.0120015
3870.43	0.0117142
3880.07	0.0117646
3889.72	0.0118744
3899.36	0.0127351
3909	0.0102604
3918.64	0.0127886
3928.29	0.0130194
3937.93	0.0118591
3947.57	0.0124139
3957.21	0.0110167
3966.86	0.012157
3976.5	0.011505
3986.14	0.0113857
3995.78	0.0113556
