Measurement: Infrared, Infrared Data Processed
Mineral: Yukonite
Rruff sample: X100001
Ideal chemistry: Ca_7_Fe^3+^_15_(As^5+^O_4_)_9_O_16_25H_2_O
Locality: Tagish Lake, Yukon, Canada
Source: Geological Survey of Canada
Description: Single homogeneous crystals. Sample and data are from Gomez et al (2010).
x	intensity
550	9.1022
559	9.1713
568	9.0784
577	8.7317
586	8.4077
595	8.2792
604	8.2259
613	8.3461
622	8.5599
631	8.8035
640	8.9294
649	8.9827
658	8.979
667	8.9093
676	8.866
685	8.732
694	8.681
703	8.6116
712	8.4728
721	8.2673
730	7.9549
739	7.404
748	6.5515
757	5.398
766	4.0553
775	2.8954
784	2.4179
793	2.8298
802	3.81
811	4.6807
820	5.3619
829	6.0348
838	6.5306
847	6.8726
856	7.0978
865	7.2412
874	7.375
883	7.5713
892	7.8446
901	8.1936
910	8.6005
919	8.9933
928	9.3109
937	9.4772
946	9.5051
955	9.5171
964	9.523
973	9.5279
982	9.5175
991	9.4832
1000	9.4456
1009	9.4349
1018	9.4565
1027	9.4953
1036	9.5452
1045	9.5713
1054	9.604
1063	9.6006
1072	9.5813
1081	9.5147
1090	9.495
1099	9.548
1108	9.5836
1117	9.6244
1126	9.6591
1135	9.6682
1144	9.6675
1153	9.6668
1162	9.6513
1171	9.6356
1180	9.6122
1189	9.5882
1198	9.5955
1207	9.6026
1216	9.598
1225	9.5679
1234	9.5299
1243	9.4955
1252	9.4601
1261	9.4613
1270	9.4642
1279	9.4477
1288	9.398
1297	9.3562
1306	9.3205
1315	9.2653
1324	9.1953
1333	9.1067
1342	9.0046
1351	8.8685
1360	8.7153
1369	8.5083
1378	8.2677
1387	8.0934
1396	8.0861
1405	8.1425
1414	8.0811
1423	8.1054
1432	8.2472
1441	8.4502
1450	8.5854
1459	8.691
1468	8.5937
1477	8.6145
1486	8.5183
1495	8.4931
1504	8.3309
1513	8.2962
1522	8.2349
1531	8.0382
1540	7.9326
1549	7.7496
1558	7.5818
1567	7.4262
1576	7.2846
1585	7.0831
1594	6.9248
1603	6.7338
1612	6.4967
1621	6.2378
1630	6.1582
1639	6.2867
1648	6.5181
1657	6.8442
1666	7.1153
1675	7.5046
1684	7.8428
1693	8.0888
1702	8.4948
1711	8.5693
1720	8.813
1729	8.8318
1738	8.9659
1747	9.1423
1756	9.2694
1765	9.2926
1774	9.3405
1783	9.2779
1792	9.2623
1801	9.2362
1810	9.1944
1819	9.1571
1828	9.1261
1837	9.1006
1846	9.0989
1855	9.0227
1864	8.9763
1873	8.9513
1882	8.9011
1891	8.8659
1900	8.8147
1909	8.7766
1918	8.7338
1927	8.6689
1936	8.6245
1945	8.578
1954	8.5114
1963	8.4796
1972	8.4424
1981	8.6101
1990	8.4755
1999	8.3896
2008	8.3629
2017	8.3374
2026	8.3181
2035	8.3672
2044	8.3371
2053	8.3411
2062	8.253
2071	8.2325
2080	8.2255
2089	8.1569
2098	8.1269
2107	8.1074
2116	8.0524
2125	7.9328
2134	7.7772
2143	7.7646
2152	7.6782
2161	7.9188
2170	7.8462
2179	7.746
2188	7.7657
2197	7.7047
2206	7.6735
2215	7.6472
2224	7.6338
2233	7.6242
2242	7.6051
2251	7.5856
2260	7.6018
2269	7.6206
2278	7.6509
2287	7.686
2296	7.6499
2305	7.61
2314	7.6269
2323	7.7217
2332	7.6662
2341	7.6981
2350	7.4304
2359	7.6073
2368	7.736
2377	7.7061
2386	7.5354
2395	7.4911
2404	7.4551
2413	7.4406
2422	7.4101
2431	7.3813
2440	7.3492
2449	7.323
2458	7.2913
2467	7.2403
2476	7.1952
2485	7.1544
2494	7.1144
2503	7.0667
2512	7.0268
2521	6.9789
2530	6.9346
2539	6.8872
2548	6.8422
2557	6.8011
2566	6.7577
2575	6.7074
2584	6.6667
2593	6.6197
2602	6.5724
2611	6.5363
2620	6.4895
2629	6.4443
2638	6.3928
2647	6.3369
2656	6.2636
2665	6.1538
2674	6.0516
2683	5.9559
2692	5.8583
2701	5.7533
2710	5.6483
2719	5.5347
2728	5.4245
2737	5.3084
2746	5.1908
2755	5.0658
2764	4.9384
2773	4.8103
2782	4.6777
2791	4.5446
2800	4.4096
2809	4.2626
2818	4.1136
2827	3.9595
2836	3.7853
2845	3.5176
2854	3.321
2863	3.3085
2872	3.2445
2881	3.1349
2890	2.9828
2899	2.8002
2908	2.5838
2917	2.3003
2926	2.2304
2935	2.1826
2944	2.1661
2953	2.118
2962	2.0822
2971	2.048
2980	1.9832
2989	1.8616
2998	1.7316
3007	1.5738
3016	1.4444
3025	1.3161
3034	1.1801
3043	1.0525
3052	0.9233
3061	0.8014
3070	0.6982
3079	0.5939
3088	0.4929
3097	0.3977
3106	0.3224
3115	0.2524
3124	0.1862
3133	0.13
3142	0.0852
3151	0.0558
3160	0.0211
3169	0.0066
3178	0.0004
3187	0.0055
3196	0.0194
3205	0.0384
3214	0.0704
3223	0.1033
3232	0.1466
3241	0.1811
3250	0.2272
3259	0.2744
3268	0.3085
3277	0.3473
3286	0.3794
3295	0.4096
3304	0.4415
3313	0.4727
3322	0.5089
3331	0.5526
3340	0.6115
3349	0.6769
3358	0.7649
3367	0.8671
3376	0.9835
3385	1.1334
3394	1.3108
3403	1.5047
3412	1.7101
3421	1.9485
3430	2.1994
3439	2.4647
3448	2.7567
3457	3.045
3466	3.3706
3475	3.7051
3484	4.0595
3493	4.4143
3502	4.7834
3511	5.1814
3520	5.5674
3529	6.0285
3538	6.4477
3547	6.8843
3556	7.3045
3565	7.6901
3574	8.1996
3583	8.618
3592	9.1461
3601	9.6194
3610	10.0781
3619	10.4832
3628	10.7899
3637	11.1726
3646	11.2587
3655	11.592
3664	11.6636
3673	11.7799
3682	11.798
3691	11.956
3700	11.8043
3709	11.8005
3718	11.8178
3727	11.853
3736	11.9456
3745	11.903
3754	12.0028
3763	11.8403
3772	11.9167
3781	11.8848
3790	11.8495
3799	11.7924
3808	11.9772
3817	11.9136
3826	11.9021
3835	11.8448
3844	11.9526
3853	11.9549
3862	11.8801
3871	12.0116
3880	11.9121
3889	11.9664
3898	11.8696
3907	12.0465
3916	11.9481
3925	11.9885
3934	12.0168
3943	12.01
3952	12.0409
3961	12.0453
3970	12.065
3979	12.0945
3988	12.1145
3997	12.1493
