Measurement: Infrared, Infrared Data Processed
Mineral: Zircon
Rruff sample: R050488
Ideal chemistry: Zr^4+^SiO_4_
Locality: Sigulani Village, Tambani Area, Blantyre District, Nyassaland
Source: California Institute of Technology
Description: Brown fragment
Measured chemistry: (Zr_0.99_Hf_0.01_)_Î£=1_Si_1.00_O_4_
x	intensity
374.123	0.207745
383.765	0.23128
393.407	0.190177
403.05	0.15196
412.692	0.114129
422.334	0.128317
431.976	0.167071
441.619	0.116035
451.261	0.0852825
460.904	0.0592312
470.546	0.0419464
480.188	0.0345893
489.83	0.0337946
499.473	0.0361212
509.115	0.0379888
518.758	0.0419595
528.4	0.0455846
538.042	0.0514546
547.684	0.0561049
557.327	0.0627684
566.969	0.0720374
576.611	0.0826368
586.254	0.0914158
595.896	0.11575
605.538	0.153481
615.181	0.147571
624.823	0.110897
634.466	0.0795143
644.108	0.0665018
653.75	0.0632711
663.393	0.062629
673.035	0.0649741
682.677	0.0681674
692.319	0.0718595
701.962	0.0748573
711.604	0.0786429
721.246	0.0833944
730.889	0.0884571
740.531	0.0945003
750.173	0.101545
759.816	0.110657
769.458	0.12065
779.101	0.131804
788.743	0.14131
798.385	0.147258
808.028	0.159447
817.67	0.175789
827.312	0.193193
836.955	0.210751
846.597	0.228553
856.239	0.243283
865.881	0.253844
875.524	0.262497
885.166	0.264577
894.808	0.259598
904.451	0.248784
914.093	0.235036
923.736	0.221316
933.378	0.206022
943.02	0.192076
952.663	0.182351
962.305	0.173061
971.947	0.165541
981.59	0.156806
991.232	0.14566
1000.87	0.132909
1010.52	0.119019
1020.16	0.105531
1029.8	0.0937648
1039.44	0.0868105
1049.09	0.0791751
1058.73	0.0688562
1068.37	0.0564614
1078.01	0.0441415
1087.65	0.0345394
1097.3	0.0311751
1106.94	0.0258878
1116.58	0.0211794
1126.22	0.0171536
1135.87	0.0143371
1145.51	0.0124522
1155.15	0.0107508
1164.79	0.00897682
1174.44	0.00752742
1184.08	0.00650824
1193.72	0.00552051
1203.36	0.00491789
1213.01	0.00438397
1222.65	0.00400566
1232.29	0.00362759
1241.93	0.00343521
1251.58	0.00321285
1261.22	0.00342017
1270.86	0.00377549
1280.5	0.00420129
1290.14	0.00402036
1299.79	0.00401844
1309.43	0.00418044
1319.07	0.00415235
1328.71	0.00417768
1338.36	0.00430868
1348	0.00455026
1357.64	0.00463646
1367.28	0.0049996
1376.92	0.00519996
1386.57	0.00557853
1396.21	0.00618397
1405.85	0.00628625
1415.49	0.00642018
1425.14	0.00659268
1434.78	0.00691907
1444.42	0.0069031
1454.06	0.00679656
1463.71	0.00679135
1473.35	0.0069807
1482.99	0.00705822
1492.63	0.00719967
1502.28	0.00775453
1511.92	0.0076887
1521.56	0.00810849
1531.2	0.0085067
1540.85	0.00862542
1550.49	0.00895526
1560.13	0.00916054
1569.77	0.00938365
1579.41	0.00960508
1589.06	0.00989703
1598.7	0.0103752
1608.34	0.0103532
1617.98	0.0105242
1627.63	0.0108702
1637.27	0.0107745
1646.91	0.011217
1656.55	0.0110731
1666.19	0.0109471
1675.84	0.0106505
1685.48	0.0106568
1695.12	0.0108991
1704.77	0.0109224
1714.41	0.0107387
1724.05	0.0108996
1733.69	0.010817
1743.33	0.0100059
1752.98	0.0105695
1762.62	0.0109798
1772.26	0.0112066
1781.9	0.0120099
1791.55	0.0124153
1801.19	0.0121928
1810.83	0.0123554
1820.47	0.0121599
1830.12	0.0125079
1839.76	0.012102
1849.4	0.0120548
1859.04	0.0123313
1868.68	0.0126282
1878.33	0.0125416
1887.97	0.0126282
1897.61	0.0126114
1907.25	0.0125847
1916.9	0.012641
1926.54	0.0128282
1936.18	0.0131453
1945.82	0.0130579
1955.46	0.0136043
1965.11	0.013762
1974.75	0.0140478
1984.39	0.0148256
1994.04	0.0151129
2003.68	0.0146012
2013.32	0.0151688
2022.96	0.0156967
2032.6	0.0183039
2042.25	0.017313
2051.89	0.0171181
2061.53	0.0167219
2071.17	0.016874
2080.82	0.0172791
2090.46	0.0164075
2100.1	0.0177139
2109.74	0.0166971
2119.39	0.0165308
2129.03	0.0172708
2138.67	0.0177291
2148.31	0.0182512
2157.95	0.0187237
2167.6	0.0210626
2177.24	0.0196523
2186.88	0.0195101
2196.52	0.0205036
2206.17	0.0192097
2215.81	0.020018
2225.45	0.018964
2235.09	0.019813
2244.74	0.0199364
2254.38	0.0204215
2264.02	0.0200932
2273.66	0.0212845
2283.3	0.0213064
2292.95	0.020846
2302.59	0.0208537
2312.23	0.0204986
2321.87	0.0214736
2331.52	0.0202419
2341.16	0.0204268
2350.8	0.0206861
2360.44	0.0205901
2370.09	0.0204637
2379.73	0.020872
2389.37	0.0208122
2399.01	0.0211621
2408.66	0.0214043
2418.3	0.0216054
2427.94	0.0214735
2437.58	0.0217519
2447.22	0.0217204
2456.87	0.0221676
2466.51	0.0221274
2476.15	0.0222794
2485.79	0.0223455
2495.44	0.0219556
2505.08	0.0221328
2514.72	0.022077
2524.36	0.0222929
2534.01	0.0218686
2543.65	0.0224373
2553.29	0.022346
2562.93	0.0232882
2572.57	0.0234119
2582.22	0.023157
2591.86	0.0232577
2601.5	0.0239412
2611.14	0.0242451
2620.79	0.0247609
2630.43	0.0246909
2640.07	0.0247422
2649.71	0.0249744
2659.36	0.0248264
2669	0.0249734
2678.64	0.024674
2688.28	0.0250356
2697.93	0.0253082
2707.57	0.0255035
2717.21	0.0256409
2726.85	0.0259005
2736.49	0.0258974
2746.14	0.0258668
2755.78	0.026248
2765.42	0.0265832
2775.06	0.0267536
2784.71	0.0272451
2794.35	0.0269351
2803.99	0.0273042
2813.63	0.0272187
2823.28	0.0279154
2832.92	0.0279118
2842.56	0.0282425
2852.2	0.0269555
2861.84	0.0280482
2871.49	0.0281771
2881.13	0.0285464
2890.77	0.0285986
2900.41	0.028764
2910.06	0.0283537
2919.7	0.0276002
2929.34	0.0292158
2938.98	0.0292243
2948.62	0.0289912
2958.27	0.0291198
2967.91	0.0288758
2977.55	0.0291178
2987.2	0.0287044
2996.84	0.0295487
3006.48	0.0300328
3016.12	0.0275265
3025.76	0.0303094
3035.41	0.0301122
3045.05	0.0304268
3054.69	0.0306823
3064.33	0.0306897
3073.98	0.031307
3083.62	0.0309559
3093.26	0.0312472
3102.9	0.0316188
3112.55	0.0314767
3122.19	0.0318182
3131.83	0.032667
3141.47	0.032149
3151.11	0.0330213
3160.76	0.0329688
3170.4	0.0332347
3180.04	0.0335528
3189.68	0.0336169
3199.33	0.0331279
3208.97	0.0341522
3218.61	0.0337911
3228.25	0.0342633
3237.9	0.0348085
3247.54	0.0339019
3257.18	0.0347523
3266.82	0.0342475
3276.47	0.0341321
3286.11	0.0341205
3295.75	0.0347476
3305.39	0.0343553
3315.03	0.0346224
3324.68	0.034653
3334.32	0.0344675
3343.96	0.0343021
3353.6	0.0343796
3363.25	0.0350811
3372.89	0.0348934
3382.53	0.0345737
3392.17	0.0347485
3401.82	0.0345275
3411.46	0.0343605
3421.1	0.0345684
3430.74	0.0338305
3440.39	0.0345793
3450.03	0.0355697
3459.67	0.0344068
3469.31	0.0351408
3478.95	0.0347011
3488.6	0.0339004
3498.24	0.0338299
3507.88	0.0347487
3517.52	0.03421
3527.17	0.0347058
3536.81	0.0343288
3546.45	0.0340935
3556.09	0.0333875
3565.74	0.0334708
3575.38	0.0328467
3585.02	0.0328003
3594.66	0.0329615
3604.3	0.0327301
3613.95	0.0329186
3623.59	0.0331763
3633.23	0.033038
3642.87	0.0318965
3652.52	0.0314371
3662.16	0.0310482
3671.8	0.0327033
3681.44	0.0316569
3691.09	0.0318799
3700.73	0.0321992
3710.37	0.03035
3720.01	0.0317305
3729.66	0.0313445
3739.3	0.0310341
3748.94	0.0321412
3758.58	0.0308468
3768.22	0.0307051
3777.87	0.0323316
3787.51	0.0313799
3797.15	0.0325466
3806.79	0.0319556
3816.44	0.0322026
3826.08	0.0327709
3835.72	0.0315745
3845.36	0.0316617
3855.01	0.0319154
3864.65	0.0329612
3874.29	0.0326948
3883.93	0.0330671
3893.57	0.0333812
3903.22	0.0334202
3912.86	0.0336657
3922.5	0.033192
3932.14	0.0326252
3941.79	0.0330542
3951.43	0.03237
3961.07	0.0343672
3970.71	0.0337325
3980.36	0.0340238
3990	0.034234
3999.64	0.0336411
