Measurement: Infrared, Infrared Data Processed
Mineral: Actinolite
Rruff sample: R050025
Ideal chemistry: Ca_2_(Mg_4.5-2.5_Fe^2+^_0.5-2.5_)Si_8_O_22_(OH)_2_
Locality: Tyrol, Austria
Source: Eugene Schlepp
Description: Green colored bladed single crystals
Measured chemistry: (Ca_.930_Na_.056_Mn_.010_K_.004_)_2_(Mg_.883_Fe_.117_)_5_(Si_.978_Al_.022_)_8_O_22_(OH)_2_
x	intensity
399.193	0
408.835	0.2579
418.477	0.261364
428.12	0.264996
437.762	0.329448
447.404	0.29481
457.047	0.286504
466.689	0.266207
476.331	0.21998
485.974	0.188205
495.616	0.20321
505.258	0.209292
514.901	0.167405
524.543	0.150932
534.185	0.133566
543.828	0.0992623
553.47	0.0662677
563.112	0.0456779
572.755	0.0315908
582.397	0.0245186
592.039	0.0207816
601.682	0.01986
611.324	0.0221724
620.966	0.0247485
630.609	0.0352154
640.251	0.0669295
649.893	0.061995
659.536	0.0814507
669.178	0.0714841
678.82	0.114689
688.463	0.105617
698.105	0.0676084
707.747	0.051847
717.39	0.0560218
727.032	0.0723327
736.674	0.0996162
746.317	0.134736
755.959	0.207106
765.601	0.171997
775.244	0.133355
784.886	0.126618
794.528	0.124994
804.171	0.124891
813.813	0.126231
823.455	0.129092
833.098	0.133817
842.74	0.137337
852.382	0.131251
862.025	0.12584
871.667	0.130907
881.309	0.15935
890.952	0.206808
900.594	0.265198
910.236	0.340419
919.879	0.362869
929.521	0.297738
939.163	0.363947
948.806	0.420775
958.448	0.396609
968.09	0.355604
977.733	0.329707
987.375	0.318005
997.017	0.271758
1006.66	0.207846
1016.3	0.160559
1025.94	0.129827
1035.59	0.144898
1045.23	0.148651
1054.87	0.150921
1064.51	0.143921
1074.16	0.124818
1083.8	0.113906
1093.44	0.133764
1103.08	0.139919
1112.72	0.115466
1122.37	0.0816024
1132.01	0.0571962
1141.65	0.0316884
1151.3	0.0180949
1160.94	0.0118395
1170.58	0.00944957
1180.22	0.00836802
1189.86	0.00746529
1199.51	0.00679061
1209.15	0.00610823
1218.79	0.00609327
1228.43	0.00573119
1238.08	0.0057358
1247.72	0.00588438
1257.36	0.00548564
1267	0.00551835
1276.64	0.00671972
1286.29	0.00699975
1295.93	0.00806032
1305.57	0.00913771
1315.21	0.0108797
1324.86	0.0121798
1334.5	0.0140454
1344.14	0.0157755
1353.78	0.0177986
1363.43	0.0199933
1373.07	0.0238766
1382.71	0.0300002
1392.35	0.0375207
1401.99	0.0419417
1411.64	0.0408817
1421.28	0.0396352
1430.92	0.0409335
1440.57	0.0412207
1450.21	0.0382476
1459.85	0.0336016
1469.49	0.0282905
1479.13	0.0227283
1488.78	0.0188909
1498.42	0.0157163
1508.06	0.0132719
1517.7	0.0116507
1527.35	0.0115115
1536.99	0.0114316
1546.63	0.0112073
1556.27	0.0110454
1565.91	0.0111691
1575.56	0.0106436
1585.2	0.0112334
1594.84	0.0109155
1604.48	0.0104434
1614.13	0.0100604
1623.77	0.00951918
1633.41	0.00860898
1643.05	0.00822112
1652.7	0.00754502
1662.34	0.00797021
1671.98	0.00747156
1681.62	0.00705556
1691.27	0.0073633
1700.91	0.00696211
1710.55	0.00736215
1720.19	0.0073765
1729.84	0.00755798
1739.48	0.00671985
1749.12	0.00623516
1758.76	0.00562201
1768.4	0.00536893
1778.05	0.00548437
1787.69	0.00506394
1797.33	0.00429708
1806.97	0.00401308
1816.62	0.00312982
1826.26	0.00372564
1835.9	0.00389299
1845.54	0.00310654
1855.18	0.00366386
1864.83	0.00281059
1874.47	0.00375925
1884.11	0.00276037
1893.75	0.00221634
1903.4	0.00274229
1913.04	0.00232797
1922.68	0.000409293
1932.32	0.00136543
1941.97	0.000496319
1951.61	0.000278395
1961.25	-0.00149951
1970.89	-0.00369199
1980.54	0.000922506
1990.18	-0.00150959
1999.82	-0.00151399
2009.46	0.00176329
2019.11	0.00207856
2028.75	-0.000490644
2038.39	0.00292668
2048.03	0.00409311
2057.67	0.00433288
2067.32	0.00417117
2076.96	0.00461969
2086.6	0.00324737
2096.24	0.00336188
2105.89	0.00635819
2115.53	0.00341021
2125.17	0.0019127
2134.81	-7.42298e-05
2144.45	0.00259278
2154.1	-0.00308751
2163.74	0.00376289
2173.38	0.00299524
2183.02	0.00303846
2192.67	0.00288339
2202.31	0.00294469
2211.95	0.00337551
2221.59	0.00759479
2231.24	0.00671036
2240.88	0.00851064
2250.52	0.00787604
2260.16	0.00689393
2269.8	0.00927207
2279.45	0.0107102
2289.09	0.0108219
2298.73	0.0105836
2308.38	0.0113206
2318.02	0.0112734
2327.66	0.0100221
2337.3	0.00890707
2346.94	0.009817
2356.59	0.00934847
2366.23	0.0089625
2375.87	0.00965347
2385.51	0.00960572
2395.16	0.0101377
2404.8	0.0103511
2414.44	0.010818
2424.08	0.0101137
2433.72	0.0110843
2443.37	0.0116969
2453.01	0.0119204
2462.65	0.0113511
2472.29	0.0108332
2481.94	0.0102298
2491.58	0.0110421
2501.22	0.0113701
2510.86	0.0118988
2520.51	0.0117439
2530.15	0.0107726
2539.79	0.0125019
2549.43	0.012737
2559.07	0.0135468
2568.72	0.0133431
2578.36	0.0129823
2588	0.0125444
2597.64	0.0124157
2607.29	0.0132637
2616.93	0.0134771
2626.57	0.012924
2636.21	0.0131817
2645.86	0.0136969
2655.5	0.0133673
2665.14	0.0134749
2674.78	0.0129087
2684.43	0.0131061
2694.07	0.0125277
2703.71	0.0138175
2713.35	0.0117462
2722.99	0.013868
2732.64	0.0129359
2742.28	0.0122954
2751.92	0.0133632
2761.56	0.0140919
2771.21	0.0132703
2780.85	0.012608
2790.49	0.0137156
2800.13	0.0139156
2809.78	0.0132556
2819.42	0.0143228
2829.06	0.0148634
2838.7	0.0146705
2848.34	0.0153615
2857.99	0.0151652
2867.63	0.0146882
2877.27	0.0166865
2886.91	0.0153281
2896.56	0.0170599
2906.2	0.0158259
2915.84	0.0169379
2925.48	0.0183953
2935.13	0.0177174
2944.77	0.0180751
2954.41	0.0161418
2964.05	0.0171121
2973.7	0.0176907
2983.34	0.0177563
2992.98	0.0180975
3002.62	0.0175304
3012.26	0.0167356
3021.91	0.0174303
3031.55	0.0179161
3041.19	0.0162969
3050.83	0.0179568
3060.48	0.0186867
3070.12	0.0181279
3079.76	0.0198454
3089.4	0.0180907
3099.05	0.0180486
3108.69	0.0204735
3118.33	0.019549
3127.97	0.0176375
3137.61	0.0200084
3147.26	0.0224494
3156.9	0.0212663
3166.54	0.0200546
3176.18	0.0219417
3185.83	0.0206698
3195.47	0.0210937
3205.11	0.0200653
3214.75	0.0209566
3224.4	0.0218128
3234.04	0.0219445
3243.68	0.0205819
3253.32	0.0196105
3262.97	0.0216366
3272.61	0.0228659
3282.25	0.0208037
3291.89	0.0202309
3301.53	0.0241248
3311.18	0.0219674
3320.82	0.0234649
3330.46	0.0238818
3340.1	0.0235431
3349.75	0.0242902
3359.39	0.0243462
3369.03	0.0239321
3378.67	0.0225027
3388.32	0.0250456
3397.96	0.0242971
3407.6	0.0251408
3417.24	0.0250756
3426.89	0.0249586
3436.53	0.0250945
3446.17	0.0234235
3455.81	0.0234446
3465.45	0.0246712
3475.1	0.023059
3484.74	0.0261451
3494.38	0.0209177
3504.02	0.0223463
3513.67	0.0233426
3523.31	0.0231919
3532.95	0.0215957
3542.59	0.0236191
3552.24	0.0233329
3561.88	0.0252529
3571.52	0.0241936
3581.16	0.0226121
3590.8	0.0231692
3600.45	0.0223161
3610.09	0.0249986
3619.73	0.0226241
3629.37	0.023162
3639.02	0.0223088
3648.66	0.0249974
3658.3	0.0319527
3667.94	0.0299941
3677.59	0.030265
3687.23	0.0192322
3696.87	0.0203028
3706.51	0.022657
3716.16	0.0223092
3725.8	0.024715
3735.44	0.0191523
3745.08	0.0197528
3754.72	0.0232034
3764.37	0.02281
3774.01	0.0229401
3783.65	0.0245132
3793.29	0.0228619
3802.94	0.0267088
3812.58	0.0261878
3822.22	0.0252961
3831.86	0.0224225
3841.51	0.0239819
3851.15	0.023485
3860.79	0.0239665
3870.43	0.0234857
3880.07	0.0245808
3889.72	0.0246395
3899.36	0.0254891
3909	0.0224258
3918.64	0.0251334
3928.29	0.0228277
3937.93	0.0245773
3947.57	0.0269578
3957.21	0.0251681
3966.86	0.0283401
3976.5	0.0236943
3986.14	0.0270092
3995.78	0.0227839
