Measurement: Infrared, Infrared Data Processed
Mineral: Actinolite
Rruff sample: R060041
Ideal chemistry: Ca_2_(Mg_4.5-2.5_Fe^2+^_0.5-2.5_)Si_8_O_22_(OH)_2_
Locality: Prince of Wales Island, Alaska, USA
Source: University of Arizona Mineral Museum
Description: Green acicular crystals forming parallel groups in cylindrical or bladed forms
Measured chemistry: (Ca_0.97_Na_0.03_)_2_(Mg_0.65_Fe^2+^_0.29_Fe^3+^_0.04_Al_0.01_Mn_0.01_)_5_(Si_0.98_Al_0.02_)_8_O_22_(OH)_2_
x	intensity
399.193	0.296185
408.835	0.299134
418.477	0.299411
428.12	0.364655
437.762	0.361884
447.404	0.338723
457.047	0.333477
466.689	0.278852
476.331	0.227193
485.974	0.203368
495.616	0.242154
505.258	0.221898
514.901	0.182134
524.543	0.159064
534.185	0.130571
543.828	0.0972273
553.47	0.0712601
563.112	0.0522499
572.755	0.0406535
582.397	0.0338528
592.039	0.0322556
601.682	0.0342889
611.324	0.0385114
620.966	0.0483209
630.609	0.0720578
640.251	0.0897724
649.893	0.0936198
659.536	0.0804177
669.178	0.0738878
678.82	0.100651
688.463	0.110945
698.105	0.0831314
707.747	0.0625332
717.39	0.0661745
727.032	0.0702797
736.674	0.0860662
746.317	0.132415
755.959	0.165834
765.601	0.0814667
775.244	0.06625
784.886	0.0627101
794.528	0.0678171
804.171	0.0670825
813.813	0.0616117
823.455	0.06973
833.098	0.0853404
842.74	0.107732
852.382	0.130636
862.025	0.159717
871.667	0.201423
881.309	0.257103
890.952	0.324838
900.594	0.404847
910.236	0.473055
919.879	0.449261
929.521	0.429655
939.163	0.523709
948.806	0.523659
958.448	0.460338
968.09	0.411692
977.733	0.387222
987.375	0.351935
997.017	0.285844
1006.66	0.227894
1016.3	0.187376
1025.94	0.173284
1035.59	0.187388
1045.23	0.189338
1054.87	0.190134
1064.51	0.177948
1074.16	0.157558
1083.8	0.154608
1093.44	0.168249
1103.08	0.164391
1112.72	0.136993
1122.37	0.104988
1132.01	0.0781224
1141.65	0.0516547
1151.3	0.0353027
1160.94	0.030202
1170.58	0.0267114
1180.22	0.0234033
1189.86	0.0210726
1199.51	0.0183436
1209.15	0.0154019
1218.79	0.0125326
1228.43	0.0109593
1238.08	0.0100462
1247.72	0.00944976
1257.36	0.00913477
1267	0.00890769
1276.64	0.0092323
1286.29	0.00891399
1295.93	0.00865153
1305.57	0.00865009
1315.21	0.00872495
1324.86	0.00868605
1334.5	0.0088718
1344.14	0.00914601
1353.78	0.00921476
1363.43	0.00874561
1373.07	0.00902465
1382.71	0.009632
1392.35	0.00998016
1401.99	0.0105711
1411.64	0.0112331
1421.28	0.0109203
1430.92	0.0112383
1440.57	0.0113331
1450.21	0.0111341
1459.85	0.0105697
1469.49	0.0104368
1479.13	0.01065
1488.78	0.0101158
1498.42	0.00985326
1508.06	0.00870412
1517.7	0.00972561
1527.35	0.0104596
1536.99	0.0103941
1546.63	0.0115214
1556.27	0.0108398
1565.91	0.013227
1575.56	0.0122772
1585.2	0.0150199
1594.84	0.0155403
1604.48	0.0159479
1614.13	0.015283
1623.77	0.0149202
1633.41	0.0145401
1643.05	0.0149198
1652.7	0.0100712
1662.34	0.0137894
1671.98	0.0137093
1681.62	0.0132752
1691.27	0.0133033
1700.91	0.00979128
1710.55	0.01214
1720.19	0.0108448
1729.84	0.0108881
1739.48	0.00925517
1749.12	0.00892485
1758.76	0.0103646
1768.4	0.0100387
1778.05	0.0106712
1787.69	0.0109235
1797.33	0.0107197
1806.97	0.0105368
1816.62	0.0102147
1826.26	0.0101913
1835.9	0.0102038
1845.54	0.00963765
1855.18	0.0105498
1864.83	0.0104346
1874.47	0.00997611
1884.11	0.00998384
1893.75	0.00988398
1903.4	0.00946175
1913.04	0.00981519
1922.68	0.00942245
1932.32	0.009677
1941.97	0.00861283
1951.61	0.00831077
1961.25	0.00992007
1970.89	0.0086695
1980.54	0.0117515
1990.18	0.00909701
1999.82	0.0115867
2009.46	0.0115987
2019.11	0.0121463
2028.75	0.0133939
2038.39	0.013512
2048.03	0.0142265
2057.67	0.013921
2067.32	0.0130414
2076.96	0.0138301
2086.6	0.0137403
2096.24	0.0134949
2105.89	0.0143994
2115.53	0.0135116
2125.17	0.012677
2134.81	0.0123642
2144.45	0.0121158
2154.1	0.0140594
2163.74	0.0167449
2173.38	0.0152459
2183.02	0.0150487
2192.67	0.0145833
2202.31	0.0147469
2211.95	0.0159935
2221.59	0.0160445
2231.24	0.0162092
2240.88	0.0167423
2250.52	0.0171274
2260.16	0.0174988
2269.8	0.0183771
2279.45	0.0189948
2289.09	0.0185965
2298.73	0.0177403
2308.38	0.017836
2318.02	0.0183975
2327.66	0.0172222
2337.3	0.017173
2346.94	0.0170528
2356.59	0.0168804
2366.23	0.0167862
2375.87	0.0170804
2385.51	0.017227
2395.16	0.0171664
2404.8	0.0170227
2414.44	0.0177414
2424.08	0.0177777
2433.72	0.0180575
2443.37	0.0182971
2453.01	0.0181135
2462.65	0.0179905
2472.29	0.0182255
2481.94	0.0181587
2491.58	0.0181285
2501.22	0.0181176
2510.86	0.0181719
2520.51	0.0185905
2530.15	0.0190345
2539.79	0.0187556
2549.43	0.0188149
2559.07	0.0189354
2568.72	0.0194456
2578.36	0.0195507
2588	0.0199391
2597.64	0.0198729
2607.29	0.0201903
2616.93	0.020494
2626.57	0.0209541
2636.21	0.0211511
2645.86	0.0213613
2655.5	0.0211114
2665.14	0.0207128
2674.78	0.0212838
2684.43	0.0213594
2694.07	0.0212689
2703.71	0.0215998
2713.35	0.021853
2722.99	0.0217877
2732.64	0.0218145
2742.28	0.0220504
2751.92	0.0221936
2761.56	0.0227569
2771.21	0.0229894
2780.85	0.0226844
2790.49	0.0231255
2800.13	0.0227402
2809.78	0.0231766
2819.42	0.0234397
2829.06	0.0240047
2838.7	0.0240271
2848.34	0.0219077
2857.99	0.0234079
2867.63	0.0245173
2877.27	0.024497
2886.91	0.0241117
2896.56	0.0243232
2906.2	0.0244709
2915.84	0.0222233
2925.48	0.0243809
2935.13	0.0248741
2944.77	0.0254185
2954.41	0.0266318
2964.05	0.0271179
2973.7	0.0260382
2983.34	0.0265002
2992.98	0.0263482
3002.62	0.0262837
3012.26	0.0270325
3021.91	0.0270672
3031.55	0.0272709
3041.19	0.0276984
3050.83	0.0278957
3060.48	0.0287217
3070.12	0.0287593
3079.76	0.0290275
3089.4	0.0297066
3099.05	0.0301768
3108.69	0.0303018
3118.33	0.0307675
3127.97	0.0309847
3137.61	0.0313804
3147.26	0.03142
3156.9	0.0316162
3166.54	0.0328369
3176.18	0.0325227
3185.83	0.0333696
3195.47	0.032506
3205.11	0.0333537
3214.75	0.0330167
3224.4	0.0336142
3234.04	0.0346402
3243.68	0.0344397
3253.32	0.0342721
3262.97	0.0347545
3272.61	0.0352964
3282.25	0.0350427
3291.89	0.0357853
3301.53	0.035877
3311.18	0.0363822
3320.82	0.03633
3330.46	0.036535
3340.1	0.0363772
3349.75	0.0370567
3359.39	0.0375921
3369.03	0.0374091
3378.67	0.0374115
3388.32	0.0376637
3397.96	0.0377949
3407.6	0.0377128
3417.24	0.0377281
3426.89	0.0381782
3436.53	0.0380245
3446.17	0.0380086
3455.81	0.0373616
3465.45	0.0383216
3475.1	0.0372279
3484.74	0.0383753
3494.38	0.0370873
3504.02	0.0373516
3513.67	0.0375563
3523.31	0.0367272
3532.95	0.0366618
3542.59	0.036546
3552.24	0.035661
3561.88	0.0364514
3571.52	0.0360511
3581.16	0.0358133
3590.8	0.035357
3600.45	0.0346861
3610.09	0.0329506
3619.73	0.0329836
3629.37	0.0308935
3639.02	0.0368501
3648.66	0.0308317
3658.3	0.0437169
3667.94	0.0297272
3677.59	0.0297199
3687.23	0.0248631
3696.87	0.0278927
3706.51	0.0283276
3716.16	0.0285443
3725.8	0.02761
3735.44	0.0249128
3745.08	0.0221328
3754.72	0.0282499
3764.37	0.0286175
3774.01	0.0295849
3783.65	0.0291407
3793.29	0.0298032
3802.94	0.0271164
3812.58	0.0294606
3822.22	0.0268097
3831.86	0.0283237
3841.51	0.028281
3851.15	0.0254557
3860.79	0.0292288
3870.43	0.0274746
3880.07	0.0292095
3889.72	0.0289898
3899.36	0.028327
3909	0.0300652
3918.64	0.0292509
3928.29	0.0307769
3937.93	0.0302884
3947.57	0.0304629
3957.21	0.0315396
3966.86	0.0315995
3976.5	0.0305685
3986.14	0.0308803
3995.78	0.0317363
