Measurement: Infrared, Infrared Data Processed
Mineral: Aegirine
Rruff sample: R050074
Ideal chemistry: NaFe^3+^Si_2_O_6_
Locality: Mt. Malosa, Zomba, Chilwa, Alkaline Area, Malawi
Source: Rock Currier
Description: Black prismatic single crystal
Measured chemistry: (Na_0.98_Ca_0.02_)_Σ=1_(Fe^3+^_0.96_Ti_0.01_Mn_0.03_)_Σ=1_Si_2.00_O_6_
x	intensity
399.193	0
408.835	0.108447
418.477	0.108789
428.12	0.135272
437.762	0.168388
447.404	0.195533
457.047	0.201497
466.689	0.19213
476.331	0.161758
485.974	0.145258
495.616	0.152984
505.258	0.135594
514.901	0.0966034
524.543	0.0879653
534.185	0.105585
543.828	0.119631
553.47	0.10815
563.112	0.10552
572.755	0.08686
582.397	0.0563526
592.039	0.0344846
601.682	0.0286767
611.324	0.0319656
620.966	0.0429385
630.609	0.0635726
640.251	0.0841038
649.893	0.058524
659.536	0.0285902
669.178	0.0220609
678.82	0.0231862
688.463	0.0250922
698.105	0.0282015
707.747	0.0323778
717.39	0.038616
727.032	0.0494313
736.674	0.0525764
746.317	0.0442973
755.959	0.0486009
765.601	0.05551
775.244	0.0646603
784.886	0.0759339
794.528	0.0884137
804.171	0.1036
813.813	0.122629
823.455	0.144162
833.098	0.16512
842.74	0.189538
852.382	0.21287
862.025	0.203815
871.667	0.203344
881.309	0.224899
890.952	0.245867
900.594	0.258954
910.236	0.266763
919.879	0.270694
929.521	0.27232
939.163	0.268362
948.806	0.260275
958.448	0.245393
968.09	0.226073
977.733	0.210932
987.375	0.2091
997.017	0.212418
1006.66	0.205784
1016.3	0.187603
1025.94	0.16522
1035.59	0.161156
1045.23	0.145861
1054.87	0.128256
1064.51	0.110015
1074.16	0.0925939
1083.8	0.0803015
1093.44	0.0716219
1103.08	0.0635797
1112.72	0.0527319
1122.37	0.0400078
1132.01	0.0274967
1141.65	0.0172288
1151.3	0.0096495
1160.94	0.00650706
1170.58	0.00514697
1180.22	0.0048195
1189.86	0.00425839
1199.51	0.00401449
1209.15	0.00382376
1218.79	0.00369684
1228.43	0.00333532
1238.08	0.00337854
1247.72	0.00342428
1257.36	0.00349256
1267	0.00336738
1276.64	0.0033899
1286.29	0.00354334
1295.93	0.00367154
1305.57	0.00412203
1315.21	0.00431709
1324.86	0.00440918
1334.5	0.00484471
1344.14	0.00507508
1353.78	0.00524136
1363.43	0.00534341
1373.07	0.00509121
1382.71	0.00529983
1392.35	0.00543587
1401.99	0.00585699
1411.64	0.00582316
1421.28	0.00624657
1430.92	0.0060531
1440.57	0.00620494
1450.21	0.00641439
1459.85	0.00654185
1469.49	0.00655198
1479.13	0.00668549
1488.78	0.00707771
1498.42	0.00679282
1508.06	0.00739462
1517.7	0.00713454
1527.35	0.00747682
1536.99	0.00775875
1546.63	0.00826265
1556.27	0.00843659
1565.91	0.00908228
1575.56	0.00971061
1585.2	0.00995018
1594.84	0.0101814
1604.48	0.010418
1614.13	0.0105064
1623.77	0.0102693
1633.41	0.0100263
1643.05	0.00981089
1652.7	0.00995436
1662.34	0.0103379
1671.98	0.0105034
1681.62	0.0101929
1691.27	0.0102789
1700.91	0.0106454
1710.55	0.0105021
1720.19	0.0107204
1729.84	0.0103115
1739.48	0.0101536
1749.12	0.0100801
1758.76	0.0104406
1768.4	0.0101014
1778.05	0.0101326
1787.69	0.0101087
1797.33	0.00988078
1806.97	0.00986322
1816.62	0.00940814
1826.26	0.00946988
1835.9	0.00956291
1845.54	0.00976461
1855.18	0.00968112
1864.83	0.00944249
1874.47	0.00966874
1884.11	0.0090133
1893.75	0.00885115
1903.4	0.00955687
1913.04	0.00878568
1922.68	0.0089286
1932.32	0.00746699
1941.97	0.0081616
1951.61	0.00704115
1961.25	0.0063015
1970.89	0.00606114
1980.54	0.00897499
1990.18	0.00600371
1999.82	0.00706193
2009.46	0.00376344
2019.11	0.00310826
2028.75	0.0065315
2038.39	0.00906984
2048.03	0.0101116
2057.67	0.00802892
2067.32	0.0100128
2076.96	0.0106569
2086.6	0.0103484
2096.24	0.0104353
2105.89	0.0109366
2115.53	0.0109042
2125.17	0.00997428
2134.81	0.00910587
2144.45	0.0086249
2154.1	0.00647353
2163.74	0.0130338
2173.38	0.0117356
2183.02	0.011035
2192.67	0.0125628
2202.31	0.013247
2211.95	0.0144245
2221.59	0.0167931
2231.24	0.0140957
2240.88	0.0152871
2250.52	0.016397
2260.16	0.0166849
2269.8	0.0174554
2279.45	0.0181785
2289.09	0.0186877
2298.73	0.0182359
2308.38	0.0183255
2318.02	0.0192286
2327.66	0.0184595
2337.3	0.0187962
2346.94	0.019136
2356.59	0.0188956
2366.23	0.0183148
2375.87	0.0182192
2385.51	0.0179737
2395.16	0.0182564
2404.8	0.0196962
2414.44	0.0188319
2424.08	0.0189706
2433.72	0.0194474
2443.37	0.0201412
2453.01	0.0199517
2462.65	0.0204567
2472.29	0.0216971
2481.94	0.018862
2491.58	0.0205857
2501.22	0.0208625
2510.86	0.0212332
2520.51	0.0203881
2530.15	0.0204484
2539.79	0.0217638
2549.43	0.0215105
2559.07	0.0213572
2568.72	0.0209393
2578.36	0.0221567
2588	0.0221581
2597.64	0.0217183
2607.29	0.0226449
2616.93	0.0227407
2626.57	0.0220629
2636.21	0.0223765
2645.86	0.0226318
2655.5	0.0222196
2665.14	0.0215679
2674.78	0.022134
2684.43	0.0220789
2694.07	0.0223795
2703.71	0.0221494
2713.35	0.0227435
2722.99	0.022942
2732.64	0.0221319
2742.28	0.0229475
2751.92	0.0228951
2761.56	0.0226914
2771.21	0.023396
2780.85	0.0238613
2790.49	0.023024
2800.13	0.0239263
2809.78	0.0234728
2819.42	0.0239896
2829.06	0.0240224
2838.7	0.0247294
2848.34	0.0250565
2857.99	0.024202
2867.63	0.0245094
2877.27	0.0246466
2886.91	0.0247803
2896.56	0.0248526
2906.2	0.0253912
2915.84	0.0243526
2925.48	0.0255521
2935.13	0.0243738
2944.77	0.0246397
2954.41	0.0255744
2964.05	0.0254329
2973.7	0.0259562
2983.34	0.0260626
2992.98	0.0270814
3002.62	0.0260429
3012.26	0.0256314
3021.91	0.0256919
3031.55	0.0275419
3041.19	0.0258751
3050.83	0.0265651
3060.48	0.0267255
3070.12	0.026527
3079.76	0.0273924
3089.4	0.0261233
3099.05	0.0268032
3108.69	0.0271414
3118.33	0.0270709
3127.97	0.0274709
3137.61	0.0270734
3147.26	0.0285839
3156.9	0.0286
3166.54	0.028982
3176.18	0.0292091
3185.83	0.0276369
3195.47	0.0287581
3205.11	0.0285476
3214.75	0.0297035
3224.4	0.0302872
3234.04	0.0272665
3243.68	0.0287433
3253.32	0.0296521
3262.97	0.0293713
3272.61	0.0296755
3282.25	0.0294011
3291.89	0.0270904
3301.53	0.0288266
3311.18	0.0285075
3320.82	0.02959
3330.46	0.029931
3340.1	0.0285101
3349.75	0.0285905
3359.39	0.0283389
3369.03	0.0293525
3378.67	0.0300345
3388.32	0.0280865
3397.96	0.031349
3407.6	0.0315454
3417.24	0.0303579
3426.89	0.0288807
3436.53	0.0315305
3446.17	0.0293405
3455.81	0.0294951
3465.45	0.0302706
3475.1	0.0299122
3484.74	0.0309086
3494.38	0.0312803
3504.02	0.0296807
3513.67	0.0296331
3523.31	0.0280174
3532.95	0.0289899
3542.59	0.0290321
3552.24	0.0289041
3561.88	0.0300997
3571.52	0.0288737
3581.16	0.0293901
3590.8	0.0280984
3600.45	0.0281281
3610.09	0.0303506
3619.73	0.029403
3629.37	0.0303909
3639.02	0.0275299
3648.66	0.0293722
3658.3	0.028835
3667.94	0.0289661
3677.59	0.0291245
3687.23	0.0295874
3696.87	0.0296039
3706.51	0.0300602
3716.16	0.0292893
3725.8	0.0280818
3735.44	0.0282545
3745.08	0.0286085
3754.72	0.0322677
3764.37	0.0303107
3774.01	0.0299096
3783.65	0.0287246
3793.29	0.0296142
3802.94	0.0293441
3812.58	0.0297602
3822.22	0.0280594
3831.86	0.0308526
3841.51	0.0294175
3851.15	0.0305739
3860.79	0.0301267
3870.43	0.031652
3880.07	0.0317892
3889.72	0.0324418
3899.36	0.029617
3909	0.0303321
3918.64	0.0302528
3928.29	0.0336872
3937.93	0.0306818
3947.57	0.0299184
3957.21	0.0335352
3966.86	0.0320316
3976.5	0.0308262
3986.14	0.0329127
3995.78	0.0319094
