Measurement: Infrared, Infrared Data Processed
Mineral: Albite
Rruff sample: R050253
Ideal chemistry: NaAlSi_3_O_8_
Locality: Madawaska/Faraday mine, Bancroft, Ontario, Canada
Source: Marcus Origlieri
Description: Colorless to brown prismatic single crystals
Measured chemistry: (Na_0.99_Ca_0.01_)Al_1.00_(Si_0.99_Al_0.01_)_3_O_8_
x	intensity
50.1401	0.0299596
52.0686	0.0107596
53.9971	0.0125027
55.9255	0.0129464
57.854	0.0123657
59.7825	0.0136607
61.7109	0.0122908
63.6394	0.0177306
65.5679	0.0182614
67.4963	0.018485
69.4248	0.0221396
71.3533	0.022682
73.2817	0.0196514
75.2102	0.0198312
77.1387	0.0215105
79.0671	0.0240106
80.9956	0.0266683
82.9241	0.026859
84.8525	0.0248086
86.781	0.0253532
88.7095	0.0271235
90.6379	0.0274582
92.5664	0.0262612
94.4948	0.0258131
96.4233	0.0240736
98.3518	0.0227214
100.28	0.0212697
102.209	0.0193992
104.137	0.0180107
106.066	0.0183106
107.994	0.0180046
109.923	0.0168916
111.851	0.0166846
113.779	0.0169788
115.708	0.0175048
117.636	0.0182589
119.565	0.0185238
121.493	0.0184613
123.422	0.0185279
125.35	0.0189468
127.279	0.0191645
129.207	0.0198565
131.136	0.0209957
133.064	0.0223052
134.993	0.023214
136.921	0.0247588
138.85	0.0271326
140.778	0.0285731
142.707	0.0289985
144.635	0.0291873
146.563	0.0287463
148.492	0.028734
150.42	0.0288371
152.349	0.0291493
154.277	0.0304756
156.206	0.0326756
158.134	0.0345533
160.063	0.0362623
161.991	0.038035
163.92	0.0392191
165.848	0.0373739
167.777	0.0339561
169.705	0.0325397
171.633	0.0329405
173.562	0.0345876
175.49	0.0378144
177.419	0.0406566
179.347	0.0427064
181.276	0.0446703
183.204	0.046012
185.133	0.0459936
187.061	0.0449256
188.99	0.0422359
190.918	0.0396621
192.847	0.0379327
194.775	0.0373226
196.704	0.0373706
198.632	0.0372457
200.56	0.0367501
202.489	0.0360898
204.417	0.0334806
206.346	0.0314343
208.274	0.0298843
210.203	0.0283285
212.131	0.0276719
214.06	0.0280148
215.988	0.0288
217.917	0.0285417
219.845	0.0264606
221.774	0.024813
223.702	0.0240162
225.631	0.0241034
227.559	0.0241437
229.488	0.0242426
231.416	0.0245194
233.344	0.0246368
235.273	0.0250028
237.201	0.0252741
239.13	0.0256268
241.058	0.026474
242.987	0.0275376
244.915	0.0290749
246.844	0.0310713
248.772	0.0323985
250.701	0.0326985
252.629	0.0326861
254.558	0.032048
256.486	0.0315622
258.414	0.0318109
260.343	0.0325865
262.271	0.0334117
264.2	0.0342437
266.128	0.0350715
268.057	0.0360232
269.985	0.0373961
271.914	0.0390309
273.842	0.0402289
275.771	0.0409545
277.699	0.0415368
279.628	0.0414823
281.556	0.0416324
283.485	0.0424433
285.413	0.042812
287.341	0.0434357
289.27	0.0446938
291.198	0.0457698
293.127	0.0468272
295.055	0.0483722
296.984	0.0499625
298.912	0.0516417
300.841	0.0535688
302.769	0.0559747
304.698	0.057727
306.626	0.0592096
308.555	0.0614405
310.483	0.0635953
312.411	0.065163
314.34	0.0662967
316.269	0.0672877
318.197	0.0688891
320.125	0.0711113
322.054	0.0742655
323.982	0.0772787
325.911	0.0800551
327.839	0.082813
329.768	0.0843897
331.696	0.0837888
333.625	0.0820033
335.553	0.0787063
337.482	0.0713436
339.41	0.0618597
341.339	0.0560765
343.267	0.0551345
345.195	0.0569963
347.124	0.0595871
349.052	0.0624286
350.981	0.0654265
352.909	0.0685032
354.838	0.0714057
356.766	0.0745702
358.695	0.077537
360.623	0.0807677
362.552	0.08438
364.48	0.0882009
366.409	0.0914572
368.337	0.0943043
370.265	0.0964878
372.194	0.0974651
374.122	0.0972936
376.051	0.0955241
377.979	0.0913195
379.908	0.0865025
381.836	0.0841741
383.765	0.0848105
385.693	0.085952
387.622	0.0851569
389.55	0.0833225
391.479	0.0832023
393.407	0.0851731
395.336	0.0878534
397.264	0.0899256
399.192	0.0909474
401.121	0.0904105
403.049	0.0889516
404.978	0.0868724
406.906	0.0848703
408.835	0.0848345
410.763	0.0875342
412.692	0.0915433
414.62	0.095386
416.549	0.096462
418.477	0.0940127
420.406	0.0902615
422.334	0.0876473
424.262	0.0858514
426.191	0.0845765
428.12	0.0832736
430.048	0.0815002
431.976	0.0786056
433.905	0.074921
435.833	0.0706763
437.762	0.0661001
439.69	0.0614096
441.619	0.0575187
443.547	0.0543099
445.476	0.0515172
447.404	0.0493072
449.333	0.0487799
451.261	0.0500033
453.19	0.0527772
455.118	0.0571878
457.046	0.062882
458.975	0.0685799
460.903	0.0733285
462.832	0.075267
464.76	0.0738262
466.689	0.0699006
468.617	0.0667989
470.546	0.0655561
472.474	0.0668799
474.403	0.0686402
476.331	0.0682599
478.26	0.0648284
480.188	0.0592939
482.116	0.0536071
484.045	0.0492793
485.974	0.045588
487.902	0.042892
489.83	0.0415574
491.759	0.0415041
493.687	0.0412595
495.616	0.0404333
497.544	0.0405388
499.473	0.0413946
501.401	0.0420763
503.33	0.0427693
505.258	0.0437458
507.187	0.0448695
509.115	0.0459614
511.043	0.0472657
512.972	0.0488417
514.9	0.051085
516.829	0.0541994
518.757	0.0581938
520.686	0.0627076
522.614	0.0679988
524.543	0.0740809
526.471	0.0802407
528.4	0.08457
530.328	0.086307
532.257	0.0848097
534.185	0.079899
536.114	0.0735556
538.042	0.0674617
539.971	0.0616741
541.899	0.0570222
543.827	0.0540162
545.756	0.0526558
547.684	0.0523028
549.613	0.052375
551.541	0.0530894
553.47	0.0540909
555.398	0.0553415
557.327	0.057032
559.255	0.0587011
561.184	0.0608003
563.112	0.063302
565.041	0.0664372
566.969	0.0695416
568.898	0.0728741
570.826	0.0763743
572.755	0.0803517
574.683	0.0845552
576.611	0.088876
578.54	0.0927194
580.468	0.0961582
582.397	0.099283
584.325	0.10161
586.254	0.103396
588.182	0.104609
590.111	0.104691
592.039	0.103463
593.968	0.101829
595.896	0.0991116
597.824	0.0952829
599.753	0.0911969
601.682	0.0871664
603.61	0.0841616
605.538	0.0815995
607.467	0.0807832
609.395	0.0804095
611.324	0.0786302
613.252	0.0758753
615.181	0.0711822
617.109	0.064661
619.038	0.0592585
620.966	0.0557503
622.894	0.0528649
624.823	0.0512728
626.751	0.0510521
628.68	0.0515645
630.608	0.052632
632.537	0.0538748
634.465	0.0550529
636.394	0.0568029
638.322	0.0596101
640.251	0.0638085
642.179	0.0691545
644.108	0.0748902
646.036	0.0812124
647.965	0.0861628
649.893	0.0874275
651.822	0.0842582
653.75	0.0785427
655.678	0.0719225
657.607	0.065743
659.535	0.0607265
661.464	0.0568099
663.392	0.0542708
665.321	0.0531252
667.249	0.0527514
669.178	0.0521519
671.106	0.0515806
673.035	0.0515021
674.963	0.0516737
676.892	0.052224
678.82	0.0529035
680.749	0.0529919
682.677	0.0531799
684.606	0.0539804
686.534	0.0541683
688.462	0.0552302
690.391	0.0564417
692.319	0.0581124
694.248	0.0591448
696.176	0.0595434
698.105	0.0603168
700.033	0.0614743
