Measurement: Infrared, Infrared Data Processed
Mineral: Albite
Rruff sample: R050253
Ideal chemistry: NaAlSi_3_O_8_
Locality: Madawaska/Faraday mine, Bancroft, Ontario, Canada
Source: Marcus Origlieri
Description: Colorless to brown prismatic single crystals
Measured chemistry: (Na_0.99_Ca_0.01_)Al_1.00_(Si_0.99_Al_0.01_)_3_O_8_
x	intensity
399.193	0.197955
408.835	0.173086
418.477	0.185007
428.12	0.145296
437.762	0.0973346
447.404	0.0633462
457.047	0.0935388
466.689	0.106551
476.331	0.0974642
485.974	0.0447944
495.616	0.0335499
505.258	0.0373555
514.901	0.0550929
524.543	0.110371
534.185	0.123196
543.828	0.0637875
553.47	0.062307
563.112	0.085117
572.755	0.127882
582.397	0.169328
592.039	0.166504
601.682	0.12838
611.324	0.109206
620.966	0.0617686
630.609	0.0423363
640.251	0.0604579
649.893	0.107719
659.536	0.0491292
669.178	0.0301038
678.82	0.0283426
688.463	0.0303854
698.105	0.0359782
707.747	0.0487091
717.39	0.0813348
727.032	0.0866244
736.674	0.0814287
746.317	0.0999056
755.959	0.0877819
765.601	0.0832087
775.244	0.0438204
784.886	0.0773411
794.528	0.042715
804.171	0.0229499
813.813	0.0205957
823.455	0.0207418
833.098	0.0220108
842.74	0.0243908
852.382	0.0277984
862.025	0.0326357
871.667	0.0432951
881.309	0.0511615
890.952	0.0524679
900.594	0.0648529
910.236	0.0801063
919.879	0.101036
929.521	0.130163
939.163	0.166444
948.806	0.21026
958.448	0.260008
968.09	0.315474
977.733	0.358186
987.375	0.369286
997.017	0.350652
1006.66	0.315933
1016.3	0.286407
1025.94	0.277447
1035.59	0.262463
1045.23	0.205388
1054.87	0.156599
1064.51	0.136637
1074.16	0.125615
1083.8	0.127923
1093.44	0.162703
1103.08	0.160099
1112.72	0.144645
1122.37	0.13456
1132.01	0.142579
1141.65	0.158232
1151.3	0.161571
1160.94	0.142768
1170.58	0.111076
1180.22	0.0833133
1189.86	0.05903
1199.51	0.039544
1209.15	0.0265468
1218.79	0.0173904
1228.43	0.012403
1238.08	0.00937643
1247.72	0.00718615
1257.36	0.00542645
1267	0.00459345
1276.64	0.00396207
1286.29	0.00337395
1295.93	0.00309994
1305.57	0.002816
1315.21	0.00279935
1324.86	0.00258217
1334.5	0.00259627
1344.14	0.00289193
1353.78	0.0031707
1363.43	0.00384249
1373.07	0.00413045
1382.71	0.00490782
1392.35	0.00637937
1401.99	0.00863342
1411.64	0.011064
1421.28	0.0137438
1430.92	0.0157601
1440.57	0.0173066
1450.21	0.0184312
1459.85	0.0183437
1469.49	0.0172368
1479.13	0.0155929
1488.78	0.0134497
1498.42	0.0111725
1508.06	0.00895952
1517.7	0.00634221
1527.35	0.00474802
1536.99	0.00371692
1546.63	0.00283151
1556.27	0.00288419
1565.91	0.00242883
1575.56	0.00266332
1585.2	0.00247075
1594.84	0.00267884
1604.48	0.0027537
1614.13	0.00297767
1623.77	0.00276637
1633.41	0.00278033
1643.05	0.00243948
1652.7	0.00297163
1662.34	0.00215171
1671.98	0.00183794
1681.62	0.00161157
1691.27	0.00174446
1700.91	0.00188662
1710.55	0.00140123
1720.19	0.00134396
1729.84	0.00111719
1739.48	0.000659916
1749.12	0.000462835
1758.76	0.000809498
1768.4	0.000951968
1778.05	0.000772503
1787.69	0.000662814
1797.33	0.000982022
1806.97	0.000521965
1816.62	-0.000317705
1826.26	-0.000138107
1835.9	-0.000506194
1845.54	-0.000411878
1855.18	-0.00057155
1864.83	-0.0010537
1874.47	-0.00100779
1884.11	-0.00197938
1893.75	-0.00103666
1903.4	-0.00167644
1913.04	-0.00169802
1922.68	-0.00229126
1932.32	-0.00180435
1941.97	-0.00227739
1951.61	-0.00334413
1961.25	-0.00279629
1970.89	-0.00379283
1980.54	-0.00208933
1990.18	-0.00344948
1999.82	-0.00325362
2009.46	-0.00273867
2019.11	-0.00193929
2028.75	-0.000658282
2038.39	-0.00221839
2048.03	-0.0018165
2057.67	-0.00261799
2067.32	-0.00351922
2076.96	-0.00166434
2086.6	-0.00223515
2096.24	-0.00151874
2105.89	-0.000883361
2115.53	-0.00129021
2125.17	-0.0020191
2134.81	-0.00168403
2144.45	-0.00104252
2154.1	-0.0001069
2163.74	0.00119885
2173.38	-0.000217177
2183.02	3.54475e-05
2192.67	-0.00269956
2202.31	-0.00106545
2211.95	-0.000883674
2221.59	0.000140242
2231.24	-0.00164119
2240.88	-0.000950219
2250.52	-0.000877056
2260.16	-0.00110463
2269.8	-0.000993129
2279.45	-0.00134552
2289.09	-0.00134962
2298.73	-0.00187378
2308.38	-0.00180193
2318.02	-0.00121164
2327.66	-0.00178664
2337.3	-0.00171703
2346.94	-0.00149029
2356.59	-0.00152844
2366.23	-0.00110617
2375.87	-0.00186582
2385.51	-0.00148042
2395.16	-0.00115763
2404.8	-0.00114718
2414.44	-0.000506153
2424.08	-0.000212689
2433.72	-0.00023092
2443.37	0.000150198
2453.01	9.82921e-05
2462.65	0.000102131
2472.29	-0.000257367
2481.94	0.000287765
2491.58	0.000104955
2501.22	0.000682467
2510.86	0.000562845
2520.51	0.000459356
2530.15	0.000432954
2539.79	0.000800907
2549.43	0.000799757
2559.07	0.000536676
2568.72	0.000396304
2578.36	0.000353824
2588	0.000781488
2597.64	0.000644672
2607.29	0.000433379
2616.93	0.000736679
2626.57	0.000370715
2636.21	0.00081765
2645.86	0.000450375
2655.5	0.000243053
2665.14	-0.000198134
2674.78	-0.000232987
2684.43	-5.70508e-05
2694.07	-0.000315814
2703.71	-0.000384664
2713.35	-0.000251954
2722.99	-0.000444074
2732.64	-0.000324462
2742.28	-0.000308528
2751.92	-0.000170052
2761.56	0.000277986
2771.21	9.86058e-05
2780.85	-0.000153607
2790.49	-3.91195e-05
2800.13	0.000478164
2809.78	-0.00018525
2819.42	0.000247125
2829.06	0.000515207
2838.7	0.000434173
2848.34	0.000875583
2857.99	0.000182266
2867.63	-7.47786e-05
2877.27	0.000910867
2886.91	0.000677911
2896.56	0.000358475
2906.2	0.000970584
2915.84	0.00134225
2925.48	0.00143241
2935.13	0.00110229
2944.77	0.000357856
2954.41	0.000638837
2964.05	0.00013011
2973.7	0.000602465
2983.34	0.000434273
2992.98	0.000440092
3002.62	0.00014621
3012.26	7.39588e-05
3021.91	-0.000193982
3031.55	0.000381738
3041.19	0.00044116
3050.83	0.000428969
3060.48	3.74725e-05
3070.12	0.000765497
3079.76	0.000860974
3089.4	0.00166197
3099.05	0.00176675
3108.69	0.00153295
3118.33	0.00170267
3127.97	0.00149601
3137.61	0.00114168
3147.26	0.00263945
3156.9	0.00221893
3166.54	0.0023335
3176.18	0.00243715
3185.83	0.00244304
3195.47	0.00237151
3205.11	0.0024448
3214.75	0.00282052
3224.4	0.00291663
3234.04	0.0023163
3243.68	0.00284605
3253.32	0.00362882
3262.97	0.00316315
3272.61	0.00240544
3282.25	0.00246099
3291.89	0.00286279
3301.53	0.00308318
3311.18	0.00299718
3320.82	0.00319237
3330.46	0.00299184
3340.1	0.0024389
3349.75	0.00310758
3359.39	0.00179508
3369.03	0.00332068
3378.67	0.00261677
3388.32	0.00340788
3397.96	0.00313233
3407.6	0.00255162
3417.24	0.0032326
3426.89	0.0024404
3436.53	0.00309191
3446.17	0.00289283
3455.81	0.0025303
3465.45	0.00228894
3475.1	0.00241388
3484.74	0.00176178
3494.38	0.00198321
3504.02	0.00218426
3513.67	0.00253553
3523.31	0.0018143
3532.95	0.00232144
3542.59	0.00189971
3552.24	0.00196938
3561.88	0.00174788
3571.52	0.00163961
3581.16	0.00114444
3590.8	0.00135912
3600.45	0.00146537
3610.09	0.000821734
3619.73	0.00149932
3629.37	0.00202331
3639.02	-0.00010166
3648.66	0.000717911
3658.3	-0.000897766
3667.94	0.000541467
3677.59	-0.00137779
3687.23	-0.000321856
3696.87	-0.000333806
3706.51	-0.000275579
3716.16	-0.000843686
3725.8	0.000194885
3735.44	-0.000435741
3745.08	-6.9397e-05
3754.72	-0.000714225
3764.37	-0.00153894
3774.01	-0.000220105
3783.65	-0.000937742
3793.29	-0.00118502
3802.94	0.000631722
3812.58	-0.00223358
3822.22	-0.000256127
3831.86	-0.00112707
3841.51	-0.00155398
3851.15	-0.00026293
3860.79	-0.00176159
3870.43	-0.00106601
3880.07	-0.000546575
3889.72	-0.0018957
3899.36	-0.00136964
3909	-0.00139048
3918.64	-0.0015882
3928.29	-0.0018377
3937.93	-0.00146179
3947.57	-0.00119058
3957.21	-0.00118779
3966.86	-0.00110536
3976.5	-0.00223683
3986.14	-0.00305715
3995.78	-0.0013481
