Measurement: Infrared, Infrared Data Processed
Mineral: Albite
Rruff sample: R040129
Ideal chemistry: NaAlSi_3_O_8_
Locality: LaChance Quarry, Brunswick, Cumberland County, Maine, USA
Source: Bob Downs
Description: Colorless fragment of a tabular single crystal. Characterized in the study by Che and Zega (2023)
Measured chemistry: (Na_0.99_K_0.01_)Al_1.00_Si_3.00_O_8_
x	intensity
399.193	0.25795
408.835	0.216143
418.477	0.229007
428.12	0.172317
437.762	0.111903
447.404	0.0716142
457.047	0.113795
466.689	0.128357
476.331	0.117857
485.974	0.0553369
495.616	0.0418208
505.258	0.047883
514.901	0.0686604
524.543	0.137445
534.185	0.151089
543.828	0.0730929
553.47	0.0714124
563.112	0.0988824
572.755	0.157538
582.397	0.213649
592.039	0.2059
601.682	0.151261
611.324	0.128355
620.966	0.0685787
630.609	0.0450484
640.251	0.0644817
649.893	0.130106
659.536	0.0538863
669.178	0.0307002
678.82	0.0281699
688.463	0.030476
698.105	0.0376431
707.747	0.0531154
717.39	0.0968417
727.032	0.10554
736.674	0.0979085
746.317	0.123923
755.959	0.106896
765.601	0.104875
775.244	0.0523045
784.886	0.0952009
794.528	0.0515815
804.171	0.027025
813.813	0.0237673
823.455	0.0236173
833.098	0.0251621
842.74	0.0279789
852.382	0.0327511
862.025	0.0382764
871.667	0.0459574
881.309	0.0546041
890.952	0.0671841
900.594	0.0839611
910.236	0.105963
919.879	0.136183
929.521	0.175605
939.163	0.228219
948.806	0.297919
958.448	0.378681
968.09	0.462691
977.733	0.518769
987.375	0.518898
997.017	0.475971
1006.66	0.416047
1016.3	0.375621
1025.94	0.360796
1035.59	0.33309
1045.23	0.254106
1054.87	0.192752
1064.51	0.171529
1074.16	0.16102
1083.8	0.165135
1093.44	0.208669
1103.08	0.203825
1112.72	0.184291
1122.37	0.170397
1132.01	0.180571
1141.65	0.200374
1151.3	0.201276
1160.94	0.17436
1170.58	0.134522
1180.22	0.10169
1189.86	0.0731133
1199.51	0.0499756
1209.15	0.0346868
1218.79	0.0239342
1228.43	0.0176322
1238.08	0.013878
1247.72	0.0113756
1257.36	0.00938108
1267	0.00842019
1276.64	0.00720331
1286.29	0.00659167
1295.93	0.00611521
1305.57	0.00559707
1315.21	0.00564351
1324.86	0.00569149
1334.5	0.00594789
1344.14	0.00575693
1353.78	0.00623228
1363.43	0.00623887
1373.07	0.00629798
1382.71	0.00652485
1392.35	0.00643875
1401.99	0.00638921
1411.64	0.00636003
1421.28	0.00662169
1430.92	0.0065058
1440.57	0.00638268
1450.21	0.0062001
1459.85	0.00595
1469.49	0.00606731
1479.13	0.00571458
1488.78	0.00559632
1498.42	0.00551354
1508.06	0.00587509
1517.7	0.00590743
1527.35	0.00560931
1536.99	0.00604396
1546.63	0.00662735
1556.27	0.00685836
1565.91	0.0075245
1575.56	0.00812963
1585.2	0.00903109
1594.84	0.00974189
1604.48	0.00952517
1614.13	0.00958008
1623.77	0.00908763
1633.41	0.00886534
1643.05	0.00854264
1652.7	0.00799249
1662.34	0.00763382
1671.98	0.00726099
1681.62	0.00660647
1691.27	0.00625964
1700.91	0.00662371
1710.55	0.0062746
1720.19	0.00678065
1729.84	0.00687598
1739.48	0.00701058
1749.12	0.00652112
1758.76	0.00587009
1768.4	0.00590658
1778.05	0.00556622
1787.69	0.00574009
1797.33	0.00531966
1806.97	0.00515279
1816.62	0.0047802
1826.26	0.00458473
1835.9	0.00433489
1845.54	0.00483103
1855.18	0.00399188
1864.83	0.00286107
1874.47	0.00289525
1884.11	0.00293671
1893.75	0.00259293
1903.4	0.0025919
1913.04	0.00170501
1922.68	0.000833948
1932.32	-0.000362243
1941.97	-0.00198445
1951.61	-0.00389105
1961.25	-0.00419342
1970.89	-0.0051485
1980.54	-0.00458995
1990.18	-0.00254572
1999.82	-0.00420058
2009.46	-0.00534508
2019.11	-0.00697897
2028.75	-0.00638068
2038.39	-0.00334124
2048.03	-0.00191707
2057.67	-0.00134117
2067.32	-0.000242794
2076.96	-2.4843e-05
2086.6	7.81257e-06
2096.24	-0.000850243
2105.89	0.0012435
2115.53	0.000916261
2125.17	0.000227893
2134.81	-0.00221278
2144.45	-0.00115846
2154.1	-0.00501838
2163.74	0.00185036
2173.38	-0.00265082
2183.02	-0.00273268
2192.67	-0.00126526
2202.31	0.00108366
2211.95	0.00126231
2221.59	-0.00169743
2231.24	-6.26905e-05
2240.88	0.00264174
2250.52	0.00274119
2260.16	0.00284583
2269.8	0.00349561
2279.45	0.0053051
2289.09	0.00469842
2298.73	0.00527334
2308.38	0.00489386
2318.02	0.00697769
2327.66	0.00633812
2337.3	0.00597292
2346.94	0.0057397
2356.59	0.00658356
2366.23	0.00580224
2375.87	0.00669551
2385.51	0.00619234
2395.16	0.00687958
2404.8	0.00763126
2414.44	0.00674051
2424.08	0.00774497
2433.72	0.00753397
2443.37	0.00734874
2453.01	0.00864887
2462.65	0.00739845
2472.29	0.00874643
2481.94	0.00797703
2491.58	0.00867309
2501.22	0.00685592
2510.86	0.00887977
2520.51	0.00854742
2530.15	0.00862592
2539.79	0.00800293
2549.43	0.00943688
2559.07	0.00883564
2568.72	0.00937565
2578.36	0.00932685
2588	0.0101003
2597.64	0.00981796
2607.29	0.00965957
2616.93	0.0101589
2626.57	0.0109063
2636.21	0.0109188
2645.86	0.010453
2655.5	0.0111352
2665.14	0.00971815
2674.78	0.00980237
2684.43	0.00963797
2694.07	0.00917775
2703.71	0.0104442
2713.35	0.0101335
2722.99	0.0102825
2732.64	0.00982503
2742.28	0.0100066
2751.92	0.0102699
2761.56	0.0106371
2771.21	0.0102585
2780.85	0.0105956
2790.49	0.0110868
2800.13	0.0106537
2809.78	0.010942
2819.42	0.0111734
2829.06	0.0114434
2838.7	0.01198
2848.34	0.0107349
2857.99	0.0117749
2867.63	0.0121278
2877.27	0.0128506
2886.91	0.0125676
2896.56	0.0125235
2906.2	0.0116925
2915.84	0.012627
2925.48	0.0112572
2935.13	0.0136433
2944.77	0.0126003
2954.41	0.0129706
2964.05	0.0140263
2973.7	0.0123012
2983.34	0.0131398
2992.98	0.0127546
3002.62	0.0132636
3012.26	0.0134974
3021.91	0.0128928
3031.55	0.0136719
3041.19	0.0136139
3050.83	0.0146498
3060.48	0.0148891
3070.12	0.0151767
3079.76	0.0149954
3089.4	0.0157551
3099.05	0.0164553
3108.69	0.0154553
3118.33	0.0168267
3127.97	0.0154254
3137.61	0.0162621
3147.26	0.0175092
3156.9	0.0169
3166.54	0.0183804
3176.18	0.0178979
3185.83	0.0177671
3195.47	0.0180285
3205.11	0.0179288
3214.75	0.0179263
3224.4	0.0180145
3234.04	0.0200962
3243.68	0.0205148
3253.32	0.0193829
3262.97	0.0202901
3272.61	0.0199064
3282.25	0.0195734
3291.89	0.0206889
3301.53	0.0194906
3311.18	0.0203027
3320.82	0.0194691
3330.46	0.02108
3340.1	0.0214287
3349.75	0.020818
3359.39	0.0204911
3369.03	0.0221775
3378.67	0.0196198
3388.32	0.0213627
3397.96	0.0210632
3407.6	0.0212837
3417.24	0.0221064
3426.89	0.0215794
3436.53	0.0216233
3446.17	0.0224976
3455.81	0.0214167
3465.45	0.021717
3475.1	0.0196923
3484.74	0.0179183
3494.38	0.019174
3504.02	0.0202188
3513.67	0.0196863
3523.31	0.020227
3532.95	0.0193269
3542.59	0.0184825
3552.24	0.0207509
3561.88	0.0190179
3571.52	0.0184672
3581.16	0.017222
3590.8	0.0182592
3600.45	0.0164231
3610.09	0.0167745
3619.73	0.0158988
3629.37	0.0168772
3639.02	0.0155855
3648.66	0.013735
3658.3	0.0141721
3667.94	0.0124386
3677.59	0.0136663
3687.23	0.0143133
3696.87	0.0141618
3706.51	0.0141696
3716.16	0.0147043
3725.8	0.0140414
3735.44	0.0153471
3745.08	0.0135375
3754.72	0.0128783
3764.37	0.0136221
3774.01	0.0153896
3783.65	0.0135886
3793.29	0.0128758
3802.94	0.0153564
3812.58	0.0136158
3822.22	0.0149444
3831.86	0.0153694
3841.51	0.0144471
3851.15	0.0149107
3860.79	0.0146928
3870.43	0.0137628
3880.07	0.0151933
3889.72	0.0147051
3899.36	0.0158453
3909	0.0156448
3918.64	0.016365
3928.29	0.015536
3937.93	0.0139657
3947.57	0.0148399
3957.21	0.0145298
3966.86	0.0153035
3976.5	0.0148213
3986.14	0.0140933
3995.78	0.014011
