Measurement: Infrared, Infrared Data Processed
Mineral: Albite
Rruff sample: R070268
Ideal chemistry: NaAlSi_3_O_8_
Locality: Kitty Hawk, North Carolina, USA
Source: Michael Scott
Description: White cleavage fragment showing polysynthetic twinning, associated with smoky quartz. Variety oligoclase.
Measured chemistry: Na_0.77_Ca_0.22_Al_1.22_Si_2.78_O_8_
x	intensity
399.193	0.0223314
408.835	0.0205094
418.477	0.020471
428.12	0.0203031
437.762	0.0163006
447.404	0.0114615
457.047	0.0106467
466.689	0.0138456
476.331	0.0115243
485.974	0.00802121
495.616	0.00606264
505.258	0.00690743
514.901	0.00901226
524.543	0.0119025
534.185	0.0167635
543.828	0.0145946
553.47	0.0113999
563.112	0.0136768
572.755	0.0185189
582.397	0.0223779
592.039	0.0230547
601.682	0.0197741
611.324	0.0161472
620.966	0.0122008
630.609	0.0121542
640.251	0.0144317
649.893	0.0102889
659.536	0.00662179
669.178	0.00592012
678.82	0.00596757
688.463	0.00655025
698.105	0.00730815
707.747	0.00843957
717.39	0.00994725
727.032	0.0103295
736.674	0.0108025
746.317	0.0109269
755.959	0.0110509
765.601	0.00962106
775.244	0.00868155
784.886	0.00874726
794.528	0.00639773
804.171	0.00450047
813.813	0.00368266
823.455	0.00398728
833.098	0.00461097
842.74	0.00588168
852.382	0.00716931
862.025	0.00862176
871.667	0.0101342
881.309	0.0112546
890.952	0.0137802
900.594	0.0163121
910.236	0.0190595
919.879	0.0222096
929.521	0.0256027
939.163	0.0282055
948.806	0.0300922
958.448	0.0320546
968.09	0.0347527
977.733	0.0378836
987.375	0.0403513
997.017	0.0416347
1006.66	0.0418397
1016.3	0.0400781
1025.94	0.0382617
1035.59	0.0358984
1045.23	0.0321072
1054.87	0.027661
1064.51	0.0242831
1074.16	0.0232773
1083.8	0.0239632
1093.44	0.0244956
1103.08	0.0248225
1112.72	0.0241942
1122.37	0.023202
1132.01	0.0226738
1141.65	0.0230066
1151.3	0.0225099
1160.94	0.0204845
1170.58	0.0173623
1180.22	0.0132253
1189.86	0.00927703
1199.51	0.00560006
1209.15	0.0027404
1218.79	0.00131331
1228.43	0.000264997
1238.08	-8.87442e-05
1247.72	-0.000440722
1257.36	-0.000936608
1267	-0.000754473
1276.64	-0.000913955
1286.29	-0.000968554
1295.93	-0.00105699
1305.57	-0.000742094
1315.21	-0.00109862
1324.86	-0.00116395
1334.5	-0.00111221
1344.14	-0.00100312
1353.78	-0.00124931
1363.43	-0.00111367
1373.07	-0.000989391
1382.71	-0.0012205
1392.35	-0.00132467
1401.99	-0.00110569
1411.64	-0.00119624
1421.28	-0.00120443
1430.92	-0.00120903
1440.57	-0.0011838
1450.21	-0.0013182
1459.85	-0.00129231
1469.49	-0.00117446
1479.13	-0.00129076
1488.78	-0.00114758
1498.42	-0.00106455
1508.06	-0.000901912
1517.7	-0.00122079
1527.35	-0.00104641
1536.99	-0.00126158
1546.63	-0.00111432
1556.27	-0.000892896
1565.91	-0.00122823
1575.56	-0.000874752
1585.2	-0.00129135
1594.84	-0.00100084
1604.48	-0.000940961
1614.13	-0.00109951
1623.77	-0.00092632
1633.41	-0.00103299
1643.05	-0.000953469
1652.7	-0.000663682
1662.34	-0.00103009
1671.98	-0.00119878
1681.62	-0.000974738
1691.27	-0.00134392
1700.91	-0.00120697
1710.55	-0.00131138
1720.19	-0.00130657
1729.84	-0.00161618
1739.48	-0.00143161
1749.12	-0.00157624
1758.76	-0.00189333
1768.4	-0.0016727
1778.05	-0.00152339
1787.69	-0.00159721
1797.33	-0.00164666
1806.97	-0.00163237
1816.62	-0.00137477
1826.26	-0.00209114
1835.9	-0.00197113
1845.54	-0.00160795
1855.18	-0.00210929
1864.83	-0.00168405
1874.47	-0.00255919
1884.11	-0.00293415
1893.75	-0.00230606
1903.4	-0.00280118
1913.04	-0.00192358
1922.68	-0.00263385
1932.32	-0.00139442
1941.97	-0.00143682
1951.61	-0.00344419
1961.25	-0.00287313
1970.89	-0.00223744
1980.54	-0.00281032
1990.18	-0.00320435
1999.82	-0.00319945
2009.46	-0.00160399
2019.11	-0.00453372
2028.75	-0.00390173
2038.39	-0.00304789
2048.03	-0.00313323
2057.67	-0.00245335
2067.32	-0.00254255
2076.96	-0.00284665
2086.6	-0.00264329
2096.24	-0.00286022
2105.89	-0.00140292
2115.53	-0.00294579
2125.17	-0.00198846
2134.81	-0.002322
2144.45	-0.00222038
2154.1	-0.00312162
2163.74	-0.000484269
2173.38	-0.00151559
2183.02	-0.00235046
2192.67	-0.00114901
2202.31	-0.00213426
2211.95	-0.00150401
2221.59	-0.00114799
2231.24	-0.00192774
2240.88	-0.00157062
2250.52	-0.000633567
2260.16	-0.00188591
2269.8	-0.00107568
2279.45	-0.00193324
2289.09	-0.00222381
2298.73	-0.00253638
2308.38	-0.00212044
2318.02	-0.00166521
2327.66	-0.00120924
2337.3	-0.000686087
2346.94	-0.00145621
2356.59	-0.00111014
2366.23	-0.000578967
2375.87	-0.00118427
2385.51	-0.00150338
2395.16	-0.00143683
2404.8	-0.00186902
2414.44	-0.00197324
2424.08	-0.00222688
2433.72	-0.00188304
2443.37	-0.00160751
2453.01	-0.00167804
2462.65	-0.00256068
2472.29	-0.00226821
2481.94	-0.00227031
2491.58	-0.00154929
2501.22	-0.00236498
2510.86	-0.00268267
2520.51	-0.00212355
2530.15	-0.00233354
2539.79	-0.00192523
2549.43	-0.00158209
2559.07	-0.00145163
2568.72	-0.00236729
2578.36	-0.00175025
2588	-0.00210534
2597.64	-0.00229509
2607.29	-0.00132291
2616.93	-0.00229466
2626.57	-0.00225765
2636.21	-0.00154492
2645.86	-0.00152357
2655.5	-0.00208481
2665.14	-0.00172551
2674.78	-0.00160843
2684.43	-0.00170389
2694.07	-0.00144396
2703.71	-0.00170155
2713.35	-0.00137905
2722.99	-0.00149537
2732.64	-0.00144311
2742.28	-0.00196522
2751.92	-0.00182005
2761.56	-0.00115871
2771.21	-0.00126011
2780.85	-0.00193433
2790.49	-0.00147888
2800.13	-0.0018273
2809.78	-0.00134392
2819.42	-0.00147836
2829.06	-0.00186537
2838.7	-0.00126982
2848.34	-0.00166413
2857.99	-0.00125798
2867.63	-0.00227908
2877.27	-0.002463
2886.91	-0.00163951
2896.56	-0.00197439
2906.2	-0.00170119
2915.84	-0.00161202
2925.48	-0.00164032
2935.13	-0.00197681
2944.77	-0.00224331
2954.41	-0.00267901
2964.05	-0.00262202
2973.7	-0.00199757
2983.34	-0.00287733
2992.98	-0.00191095
3002.62	-0.00238594
3012.26	-0.00174441
3021.91	-0.00237132
3031.55	-0.00260168
3041.19	-0.00187362
3050.83	-0.00259243
3060.48	-0.00172178
3070.12	-0.00214226
3079.76	-0.00219648
3089.4	-0.00271732
3099.05	-0.00177318
3108.69	-0.00161617
3118.33	-0.00164689
3127.97	-0.00130362
3137.61	-0.00174359
3147.26	-0.00193578
3156.9	-0.00139554
3166.54	-0.0015455
3176.18	-0.00296682
3185.83	-0.00261692
3195.47	-0.00235524
3205.11	-0.00224986
3214.75	-0.00185502
3224.4	-0.00155275
3234.04	-0.00201523
3243.68	-0.00187076
3253.32	-0.00248378
3262.97	-0.00184734
3272.61	-0.00204403
3282.25	-0.00192158
3291.89	-0.00200391
3301.53	-0.00209957
3311.18	-0.00202408
3320.82	-0.00236758
3330.46	-0.00186924
3340.1	-0.00203646
3349.75	-0.00229856
3359.39	-0.00280441
3369.03	-0.00277546
3378.67	-0.00237025
3388.32	-0.00249604
3397.96	-0.00243154
3407.6	-0.00265518
3417.24	-0.00240124
3426.89	-0.00159668
3436.53	-0.00285841
3446.17	-0.00290128
3455.81	-0.00234519
3465.45	-0.00272222
3475.1	-0.00195997
3484.74	-0.00202836
3494.38	-0.00249293
3504.02	-0.00292907
3513.67	-0.00211677
3523.31	-0.00290683
3532.95	-0.00425314
3542.59	-0.00243831
3552.24	-0.00328702
3561.88	-0.00308629
3571.52	-0.00265452
3581.16	-0.00248279
3590.8	-0.00256679
3600.45	-0.00316476
3610.09	-0.00256608
3619.73	-0.00225342
3629.37	-0.00273413
3639.02	-0.00323275
3648.66	-0.00369185
3658.3	-0.00321295
3667.94	-0.0024315
3677.59	-0.0019807
3687.23	-0.00234749
3696.87	-0.0018638
3706.51	-0.00352601
3716.16	-0.00369364
3725.8	-0.00261501
3735.44	-0.00354208
3745.08	-0.00191696
3754.72	-0.00314921
3764.37	-0.00285421
3774.01	-0.00394812
3783.65	-0.00475512
3793.29	-0.00294822
3802.94	-0.00381563
3812.58	-0.00359596
3822.22	-0.00218332
3831.86	-0.00180082
3841.51	-0.00315731
3851.15	-0.00330802
3860.79	-0.00414165
3870.43	-0.00202555
3880.07	-0.00273825
3889.72	-0.00347499
3899.36	-0.00299836
3909	-0.00249707
3918.64	-0.0044668
3928.29	-0.00213528
3937.93	-0.00308843
3947.57	-0.00248497
3957.21	-0.00338241
3966.86	-0.00378032
3976.5	-0.00195754
3986.14	-0.00250544
3995.78	-0.00302369
