Measurement: Infrared, Infrared Data Processed
Mineral: Albite
Rruff sample: R060054
Ideal chemistry: NaAlSi_3_O_8_
Locality: Mt. Erebus, Antarctica
Source: Marcus Origlieri
Description: Dark gray bladed crystal
Measured chemistry: (Na_0.67_K_0.18_Ca_0.15_)_Σ=1_Al_1.00_(Si_2.85_Al_0.15_)_Σ=3_O_8_
x	intensity
372.194	0
381.836	0
391.479	0
401.121	0.232128
410.763	0.216399
420.406	0.206837
430.048	0.178326
439.69	0.138959
449.333	0.112105
458.975	0.100381
468.617	0.0840594
478.26	0.0660547
487.902	0.05824
497.544	0.0600256
507.187	0.0684711
516.829	0.0794001
526.471	0.106879
536.114	0.164848
545.756	0.174919
555.398	0.146314
565.041	0.172689
574.683	0.193085
584.325	0.191162
593.968	0.163258
603.61	0.129711
613.252	0.103366
622.895	0.0960938
632.537	0.106257
642.179	0.0914238
651.822	0.0603944
661.464	0.0500907
671.106	0.0488937
680.749	0.0528575
690.391	0.0598814
700.033	0.0691414
709.676	0.0763857
719.318	0.0797472
728.96	0.0783448
738.603	0.076201
748.245	0.0746211
757.887	0.0743536
767.53	0.0734207
777.172	0.0690653
786.814	0.0633291
796.457	0.053965
806.099	0.0413713
815.741	0.0311452
825.384	0.0294006
835.026	0.0341244
844.668	0.0444186
854.311	0.0545619
863.953	0.06611
873.595	0.0799958
883.238	0.0986903
892.88	0.127538
902.522	0.16506
912.165	0.206944
921.807	0.246704
931.449	0.279987
941.092	0.308708
950.734	0.336607
960.376	0.362415
970.019	0.384604
979.661	0.3946
989.303	0.394881
998.946	0.385236
1008.59	0.365496
1018.23	0.335651
1027.87	0.302136
1037.52	0.268441
1047.16	0.237062
1056.8	0.209837
1066.44	0.190553
1076.08	0.183429
1085.73	0.186503
1095.37	0.190611
1105.01	0.189134
1114.65	0.181455
1124.3	0.170275
1133.94	0.156361
1143.58	0.14047
1153.22	0.12066
1162.87	0.0991535
1172.51	0.0786672
1182.15	0.0597488
1191.79	0.0437565
1201.43	0.0273754
1211.08	0.0158683
1220.72	0.00887159
1230.36	0.00447863
1240	0.00173369
1249.65	-0.000350588
1259.29	-0.00154505
1268.93	-0.00263399
1278.57	-0.00294866
1288.22	-0.00367657
1297.86	-0.00375395
1307.5	-0.00463346
1317.14	-0.00495714
1326.79	-0.00541697
1336.43	-0.00502745
1346.07	-0.00604267
1355.71	-0.00593618
1365.35	-0.00634849
1375	-0.00613553
1384.64	-0.00572884
1394.28	-0.00663638
1403.92	-0.00644435
1413.57	-0.00639844
1423.21	-0.0067679
1432.85	-0.00712757
1442.49	-0.00699372
1452.13	-0.00648076
1461.78	-0.00714895
1471.42	-0.00631898
1481.06	-0.00697742
1490.7	-0.00631761
1500.35	-0.00691351
1509.99	-0.00657358
1519.63	-0.00680117
1529.27	-0.00667717
1538.92	-0.00718431
1548.56	-0.00688642
1558.2	-0.00670882
1567.84	-0.00656949
1577.49	-0.00670193
1587.13	-0.00600465
1596.77	-0.00627441
1606.41	-0.00625003
1616.06	-0.00587899
1625.7	-0.00578403
1635.34	-0.00632891
1644.98	-0.00558819
1654.62	-0.00672072
1664.27	-0.00628102
1673.91	-0.00671043
1683.55	-0.00728726
1693.19	-0.0067781
1702.84	-0.00733327
1712.48	-0.0066682
1722.12	-0.00627303
1731.76	-0.0065414
1741.4	-0.00712881
1751.05	-0.00716448
1760.69	-0.0069738
1770.33	-0.00841666
1779.97	-0.00760565
1789.62	-0.00781149
1799.26	-0.00924596
1808.9	-0.00881329
1818.54	-0.00966392
1828.19	-0.00940291
1837.83	-0.0101049
1847.47	-0.0107396
1857.11	-0.0116141
1866.76	-0.0116368
1876.4	-0.0103127
1886.04	-0.0112133
1895.68	-0.012102
1905.33	-0.012706
1914.97	-0.0107231
1924.61	-0.0123497
1934.25	-0.0127381
1943.89	-0.0151673
1953.54	-0.0121333
1963.18	-0.011919
1972.82	-0.0136026
1982.46	-0.00942903
1992.11	-0.0169527
2001.75	-0.0148561
2011.39	-0.0154514
2021.03	-0.0125827
2030.67	-0.00970329
2040.32	-0.00964245
2049.96	-0.00873366
2059.6	-0.0112663
2069.24	-0.012527
2078.89	-0.0130144
2088.53	-0.0130466
2098.17	-0.0117374
2107.81	-0.00885526
2117.46	-0.0125043
2127.1	-0.0129761
2136.74	-0.0181162
2146.38	-0.0109235
2156.03	-0.0146151
2165.67	-0.00993074
2175.31	-0.0104624
2184.95	-0.0129654
2194.59	-0.0153125
2204.24	-0.0107253
2213.88	-0.0114625
2223.52	-0.0132131
2233.16	-0.0112767
2242.81	-0.00997528
2252.45	-0.0126471
2262.09	-0.0127762
2271.73	-0.0117389
2281.38	-0.0105179
2291.02	-0.0121148
2300.66	-0.0120435
2310.3	-0.0124862
2319.95	-0.0110132
2329.59	-0.0117105
2339.23	-0.0138512
2348.87	-0.0133039
2358.51	-0.0130048
2368.16	-0.0123237
2377.8	-0.0128408
2387.44	-0.0133919
2397.08	-0.0127295
2406.73	-0.0123253
2416.37	-0.0123361
2426.01	-0.0124784
2435.65	-0.01275
2445.3	-0.00975477
2454.94	-0.0108029
2464.58	-0.0115677
2474.22	-0.0104233
2483.86	-0.0107123
2493.51	-0.0123464
2503.15	-0.012203
2512.79	-0.0123226
2522.43	-0.0110101
2532.08	-0.0121592
2541.72	-0.0131649
2551.36	-0.0105171
2561	-0.0117196
2570.65	-0.0121972
2580.29	-0.0107153
2589.93	-0.0123941
2599.57	-0.0101934
2609.22	-0.0131516
2618.86	-0.0117376
2628.5	-0.0107394
2638.14	-0.0104697
2647.78	-0.0119063
2657.43	-0.0113943
2667.07	-0.0124865
2676.71	-0.0123705
2686.35	-0.0131552
2696	-0.0120684
2705.64	-0.0125496
2715.28	-0.0126407
2724.92	-0.0121973
2734.57	-0.0129661
2744.21	-0.0134975
2753.85	-0.0135045
2763.49	-0.0132193
2773.14	-0.0116612
2782.78	-0.0120162
2792.42	-0.0124999
2802.06	-0.0119096
2811.7	-0.0125454
2821.35	-0.012298
2830.99	-0.0130702
2840.63	-0.013269
2850.27	-0.0122485
2859.92	-0.0137938
2869.56	-0.0105857
2879.2	-0.0132487
2888.84	-0.0118545
2898.49	-0.0124309
2908.13	-0.0118147
2917.77	-0.0124778
2927.41	-0.0103219
2937.05	-0.0117956
2946.7	-0.0130112
2956.34	-0.0105616
2965.98	-0.0109434
2975.62	-0.013108
2985.27	-0.0123103
2994.91	-0.0132327
3004.55	-0.0138192
3014.19	-0.0129815
3023.84	-0.0133007
3033.48	-0.0120431
3043.12	-0.0129239
3052.76	-0.012367
3062.41	-0.0116761
3072.05	-0.0132891
3081.69	-0.0110753
3091.33	-0.0115063
3100.97	-0.0110875
3110.62	-0.014904
3120.26	-0.0129316
3129.9	-0.0109092
3139.54	-0.0126385
3149.19	-0.0139994
3158.83	-0.0123973
3168.47	-0.0120629
3178.11	-0.0137521
3187.76	-0.0102291
3197.4	-0.00994289
3207.04	-0.0126232
3216.68	-0.0142504
3226.32	-0.0138305
3235.97	-0.0118037
3245.61	-0.0120231
3255.25	-0.0133128
3264.89	-0.0157878
3274.54	-0.0114054
3284.18	-0.0131522
3293.82	-0.0138404
3303.46	-0.0104979
3313.11	-0.0132551
3322.75	-0.0123978
3332.39	-0.0132521
3342.03	-0.0116145
3351.68	-0.0098858
3361.32	-0.0162916
3370.96	-0.00874856
3380.6	-0.0112597
3390.24	-0.0127675
3399.89	-0.0145977
3409.53	-0.0138618
3419.17	-0.014735
3428.81	-0.0152535
3438.46	-0.0154105
3448.1	-0.0128484
3457.74	-0.0172872
3467.38	-0.0140051
3477.03	-0.0158665
3486.67	-0.0166032
3496.31	-0.0144942
3505.95	-0.0157374
3515.59	-0.0165875
3525.24	-0.0152561
3534.88	-0.0161988
3544.52	-0.0174365
3554.16	-0.0178867
3563.81	-0.0168047
3573.45	-0.0191248
3583.09	-0.0192513
3592.73	-0.0209576
3602.38	-0.0147388
3612.02	-0.0215561
3621.66	-0.0186082
3631.3	-0.0237257
3640.95	-0.0215406
3650.59	-0.0228935
3660.23	-0.018424
3669.87	-0.0253125
3679.51	-0.0236694
3689.16	-0.0206195
3698.8	-0.0247609
3708.44	-0.0245216
3718.08	-0.0197789
3727.73	-0.019847
3737.37	-0.0247852
3747.01	-0.0247508
3756.65	-0.0231127
3766.3	-0.0228801
3775.94	-0.0257411
3785.58	-0.0231962
3795.22	-0.0244591
3804.86	-0.0238486
3814.51	-0.0258977
3824.15	-0.0219596
3833.79	-0.0265015
3843.43	-0.0241129
3853.08	-0.0218656
3862.72	-0.0261355
3872.36	-0.0250033
3882	-0.0221825
3891.65	-0.0240695
3901.29	-0.0258884
3910.93	-0.0287427
3920.57	-0.0303519
3930.22	-0.026408
3939.86	-0.0277362
3949.5	-0.0263438
3959.14	-0.0279601
3968.78	-0.0266714
3978.43	-0.0297313
3988.07	-0.0313298
3997.71	-0.0270037
