Measurement: Infrared, Infrared Data Processed
Mineral: Allanite-(Ce)
Rruff sample: R080044
Ideal chemistry: CaCeAl_2_Fe^2+^(Si_2_O_7_)(SiO_4_)O(OH)
Locality: Aquarius Range, Mohave County, Arizona, USA
Source: John Weber
Description: Dark brown fragment from metamict sample R060418, after heating at T = 850 C for 18 hours
x	intensity
399.193	0.214406
408.835	0.21428
418.477	0.220208
428.12	0.227356
437.762	0.234835
447.404	0.234689
457.047	0.222275
466.689	0.203479
476.331	0.190905
485.974	0.19617
495.616	0.205227
505.258	0.211016
514.901	0.200951
524.543	0.184538
534.185	0.173823
543.828	0.17023
553.47	0.169767
563.112	0.165787
572.755	0.16008
582.397	0.158685
592.039	0.16324
601.682	0.167551
611.324	0.170326
620.966	0.168204
630.609	0.162262
640.251	0.166533
649.893	0.164366
659.536	0.159338
669.178	0.154865
678.82	0.149704
688.463	0.141688
698.105	0.135252
707.747	0.129918
717.39	0.123184
727.032	0.115281
736.674	0.108636
746.317	0.105
755.959	0.101863
765.601	0.100284
775.244	0.100059
784.886	0.101692
794.528	0.107728
804.171	0.119051
813.813	0.136671
823.455	0.157789
833.098	0.173699
842.74	0.182872
852.382	0.189269
862.025	0.200605
871.667	0.214385
881.309	0.220165
890.952	0.216169
900.594	0.205612
910.236	0.200687
919.879	0.205302
929.521	0.213728
939.163	0.217118
948.806	0.207057
958.448	0.188577
968.09	0.170684
977.733	0.157955
987.375	0.150062
997.017	0.144765
1006.66	0.139561
1016.3	0.134589
1025.94	0.130394
1035.59	0.129779
1045.23	0.132412
1054.87	0.137971
1064.51	0.139941
1074.16	0.136047
1083.8	0.128952
1093.44	0.120358
1103.08	0.108009
1112.72	0.0896505
1122.37	0.0707278
1132.01	0.0574333
1141.65	0.0493166
1151.3	0.0435057
1160.94	0.0388709
1170.58	0.0347335
1180.22	0.0308598
1189.86	0.0277048
1199.51	0.0241739
1209.15	0.0205639
1218.79	0.0176843
1228.43	0.0154891
1238.08	0.0133657
1247.72	0.0114144
1257.36	0.00961275
1267	0.00847437
1276.64	0.00753008
1286.29	0.00657994
1295.93	0.0064178
1305.57	0.00643794
1315.21	0.00658965
1324.86	0.00651448
1334.5	0.00670207
1344.14	0.00677324
1353.78	0.00712019
1363.43	0.00788531
1373.07	0.00836087
1382.71	0.00876345
1392.35	0.0093706
1401.99	0.00955958
1411.64	0.00996686
1421.28	0.0101762
1430.92	0.0104146
1440.57	0.0102661
1450.21	0.0102952
1459.85	0.00998315
1469.49	0.00940047
1479.13	0.00935562
1488.78	0.0093032
1498.42	0.00958693
1508.06	0.0103823
1517.7	0.0104672
1527.35	0.0106802
1536.99	0.0110703
1546.63	0.0113325
1556.27	0.0115303
1565.91	0.0108813
1575.56	0.0112625
1585.2	0.0106893
1594.84	0.0107528
1604.48	0.0107472
1614.13	0.0107821
1623.77	0.0113927
1633.41	0.0121494
1643.05	0.0121906
1652.7	0.0126636
1662.34	0.0111184
1671.98	0.00991318
1681.62	0.00892917
1691.27	0.00851081
1700.91	0.00842257
1710.55	0.00859599
1720.19	0.0105682
1729.84	0.0104779
1739.48	0.00851358
1749.12	0.00616813
1758.76	0.00546136
1768.4	0.00530531
1778.05	0.00524152
1787.69	0.00521574
1797.33	0.00525395
1806.97	0.00499569
1816.62	0.00461495
1826.26	0.00499328
1835.9	0.00482764
1845.54	0.00512054
1855.18	0.00537207
1864.83	0.0051488
1874.47	0.00479885
1884.11	0.00490241
1893.75	0.00539192
1903.4	0.00537138
1913.04	0.00484531
1922.68	0.00517185
1932.32	0.0043943
1941.97	0.00442716
1951.61	0.00501116
1961.25	0.00426968
1970.89	0.00451805
1980.54	0.00751177
1990.18	0.00467901
1999.82	0.00483473
2009.46	0.00568892
2019.11	0.00481556
2028.75	0.00461905
2038.39	0.00549832
2048.03	0.00625655
2057.67	0.00490906
2067.32	0.00591511
2076.96	0.00674385
2086.6	0.00540849
2096.24	0.00562719
2105.89	0.00667399
2115.53	0.00522527
2125.17	0.00360583
2134.81	0.00330276
2144.45	0.00297504
2154.1	0.000285682
2163.74	0.00783446
2173.38	0.00596593
2183.02	0.00718561
2192.67	0.00765228
2202.31	0.00574959
2211.95	0.00830003
2221.59	0.00733133
2231.24	0.00912526
2240.88	0.00868939
2250.52	0.00893476
2260.16	0.0092503
2269.8	0.00981337
2279.45	0.0101925
2289.09	0.0109649
2298.73	0.0101205
2308.38	0.0109869
2318.02	0.0108895
2327.66	0.0103838
2337.3	0.0102432
2346.94	0.0101139
2356.59	0.0102541
2366.23	0.00997712
2375.87	0.0097806
2385.51	0.00924426
2395.16	0.00958707
2404.8	0.0100129
2414.44	0.00993994
2424.08	0.0101724
2433.72	0.01086
2443.37	0.0107154
2453.01	0.010972
2462.65	0.0109063
2472.29	0.0110477
2481.94	0.0109282
2491.58	0.0109522
2501.22	0.0109157
2510.86	0.012155
2520.51	0.0113728
2530.15	0.0110788
2539.79	0.0115326
2549.43	0.011532
2559.07	0.0117244
2568.72	0.0121526
2578.36	0.0127818
2588	0.0124403
2597.64	0.0130503
2607.29	0.0132236
2616.93	0.0134386
2626.57	0.0136368
2636.21	0.0139204
2645.86	0.0134844
2655.5	0.0137314
2665.14	0.0132752
2674.78	0.0134617
2684.43	0.0136084
2694.07	0.0136805
2703.71	0.0143348
2713.35	0.014038
2722.99	0.0146125
2732.64	0.014788
2742.28	0.0151564
2751.92	0.0151326
2761.56	0.0154605
2771.21	0.0162529
2780.85	0.0155997
2790.49	0.016352
2800.13	0.0161717
2809.78	0.0169373
2819.42	0.0171608
2829.06	0.0176606
2838.7	0.0184452
2848.34	0.0194322
2857.99	0.0193964
2867.63	0.0202354
2877.27	0.0202488
2886.91	0.0203973
2896.56	0.0212404
2906.2	0.0220934
2915.84	0.0226426
2925.48	0.0238963
2935.13	0.0233392
2944.77	0.0236724
2954.41	0.0241563
2964.05	0.0235322
2973.7	0.0226723
2983.34	0.0226104
2992.98	0.0222155
3002.62	0.0222519
3012.26	0.0223447
3021.91	0.0228094
3031.55	0.0230315
3041.19	0.0226734
3050.83	0.0238566
3060.48	0.0246341
3070.12	0.0244287
3079.76	0.025038
3089.4	0.0252684
3099.05	0.0264439
3108.69	0.0265628
3118.33	0.0268202
3127.97	0.0270997
3137.61	0.027564
3147.26	0.0284722
3156.9	0.029413
3166.54	0.0303113
3176.18	0.0293002
3185.83	0.0304805
3195.47	0.0311151
3205.11	0.0312215
3214.75	0.0322923
3224.4	0.0322309
3234.04	0.0328717
3243.68	0.0331493
3253.32	0.0339807
3262.97	0.0348078
3272.61	0.0351894
3282.25	0.0348625
3291.89	0.0354712
3301.53	0.0355299
3311.18	0.0361393
3320.82	0.0358711
3330.46	0.0363424
3340.1	0.0371926
3349.75	0.0365508
3359.39	0.0374586
3369.03	0.0372524
3378.67	0.0373625
3388.32	0.0372427
3397.96	0.0373007
3407.6	0.0367105
3417.24	0.0370146
3426.89	0.0363868
3436.53	0.0362568
3446.17	0.0358369
3455.81	0.035312
3465.45	0.0340929
3475.1	0.033199
3484.74	0.0326744
3494.38	0.0321586
3504.02	0.0312829
3513.67	0.0299336
3523.31	0.0293453
3532.95	0.0290573
3542.59	0.026679
3552.24	0.0268688
3561.88	0.0266126
3571.52	0.0254506
3581.16	0.0250675
3590.8	0.0230928
3600.45	0.022435
3610.09	0.0213482
3619.73	0.0200656
3629.37	0.0200812
3639.02	0.0196134
3648.66	0.0182691
3658.3	0.0159252
3667.94	0.0180871
3677.59	0.0171765
3687.23	0.0163309
3696.87	0.016396
3706.51	0.0166749
3716.16	0.0151403
3725.8	0.0168059
3735.44	0.0180854
3745.08	0.0179554
3754.72	0.0169404
3764.37	0.0165175
3774.01	0.0164233
3783.65	0.0177025
3793.29	0.016475
3802.94	0.0170912
3812.58	0.0169125
3822.22	0.0172408
3831.86	0.0172012
3841.51	0.0179472
3851.15	0.0177662
3860.79	0.0174561
3870.43	0.0177994
3880.07	0.0173784
3889.72	0.0169845
3899.36	0.0173764
3909	0.0180746
3918.64	0.0174903
3928.29	0.017626
3937.93	0.0177968
3947.57	0.0176799
3957.21	0.017622
3966.86	0.0173921
3976.5	0.0174333
3986.14	0.0181531
3995.78	0.0182949
