Measurement: Infrared, Infrared Data Processed
Mineral: Allanite-(Ce)
Rruff sample: R050043
Ideal chemistry: CaCeAl_2_Fe^2+^(Si_2_O_7_)(SiO_4_)O(OH)
Locality: Arendal, Norway
Source: University of Arizona Mineral Museum
Description: Black patially metamict fragment, note that a fragment of this sample was heated and is posted at R080092
Measured chemistry: Ca_1.00_(Ce^3+^_0.22_Ca_0.21_La_0.11_Nd_0.11_Mn_0.08_Gd_0.07_Th_0.06_Y_0.06_Ti_0.05_Mg_0.03_)_Σ=1_(Al_1.82_Fe^3+^_0.40_Fe^2+^_0.78_)_Σ=3_[Si_2.00_O_7_][Si_1.00_O_4_]O(OH)
x	intensity
399.193	0.174691
408.835	0.169169
418.477	0.170757
428.12	0.172613
437.762	0.170242
447.404	0.16833
457.047	0.165273
466.689	0.161874
476.331	0.153618
485.974	0.150826
495.616	0.146444
505.258	0.140749
514.901	0.135109
524.543	0.128844
534.185	0.123663
543.828	0.11904
553.47	0.115897
563.112	0.113167
572.755	0.110325
582.397	0.107717
592.039	0.10607
601.682	0.104778
611.324	0.103633
620.966	0.102249
630.609	0.10026
640.251	0.0994031
649.893	0.0977224
659.536	0.096296
669.178	0.0949764
678.82	0.0929993
688.463	0.0914799
698.105	0.0900677
707.747	0.0885104
717.39	0.0872165
727.032	0.0859359
736.674	0.0854257
746.317	0.0847662
755.959	0.0838769
765.601	0.0839703
775.244	0.0849909
784.886	0.0873965
794.528	0.0922906
804.171	0.0990088
813.813	0.107898
823.455	0.119077
833.098	0.130511
842.74	0.141427
852.382	0.150965
862.025	0.15868
871.667	0.164669
881.309	0.168511
890.952	0.171099
900.594	0.172321
910.236	0.172442
919.879	0.17104
929.521	0.168802
939.163	0.165258
948.806	0.160935
958.448	0.155852
968.09	0.150628
977.733	0.144398
987.375	0.138534
997.017	0.13239
1006.66	0.125824
1016.3	0.119074
1025.94	0.11216
1035.59	0.104537
1045.23	0.0966107
1054.87	0.0883893
1064.51	0.0799685
1074.16	0.0718202
1083.8	0.0640191
1093.44	0.0567059
1103.08	0.0495476
1112.72	0.0431903
1122.37	0.0374075
1132.01	0.0322483
1141.65	0.0277444
1151.3	0.0236125
1160.94	0.0198658
1170.58	0.0167649
1180.22	0.0139352
1189.86	0.0118495
1199.51	0.0099497
1209.15	0.00858752
1218.79	0.00745622
1228.43	0.00663818
1238.08	0.00630742
1247.72	0.00598033
1257.36	0.00600708
1267	0.00604988
1276.64	0.00606851
1286.29	0.0059197
1295.93	0.00615063
1305.57	0.0062166
1315.21	0.00616268
1324.86	0.00643946
1334.5	0.00662187
1344.14	0.00668386
1353.78	0.00702072
1363.43	0.00717877
1373.07	0.00769667
1382.71	0.00807833
1392.35	0.00844456
1401.99	0.00901447
1411.64	0.00925384
1421.28	0.00947216
1430.92	0.00959637
1440.57	0.00979154
1450.21	0.00964928
1459.85	0.00969021
1469.49	0.00971877
1479.13	0.00998913
1488.78	0.0102185
1498.42	0.0105095
1508.06	0.0107663
1517.7	0.010995
1527.35	0.0110567
1536.99	0.0112862
1546.63	0.0115291
1556.27	0.0117069
1565.91	0.0117821
1575.56	0.0118378
1585.2	0.0119607
1594.84	0.0120152
1604.48	0.0123044
1614.13	0.0124397
1623.77	0.012793
1633.41	0.0128523
1643.05	0.0129442
1652.7	0.01319
1662.34	0.0128962
1671.98	0.0124113
1681.62	0.0123047
1691.27	0.012092
1700.91	0.0119765
1710.55	0.0115029
1720.19	0.0113031
1729.84	0.0109585
1739.48	0.0103464
1749.12	0.0105161
1758.76	0.0109825
1768.4	0.0112379
1778.05	0.0114613
1787.69	0.0115642
1797.33	0.0120045
1806.97	0.0115748
1816.62	0.011432
1826.26	0.0117986
1835.9	0.0116695
1845.54	0.0115943
1855.18	0.0118105
1864.83	0.0118824
1874.47	0.0121624
1884.11	0.0115845
1893.75	0.0123196
1903.4	0.0122431
1913.04	0.012257
1922.68	0.0118485
1932.32	0.0116098
1941.97	0.0113899
1951.61	0.0115968
1961.25	0.0103755
1970.89	0.0114469
1980.54	0.0135932
1990.18	0.0122127
1999.82	0.0114741
2009.46	0.0111795
2019.11	0.0121558
2028.75	0.0141522
2038.39	0.0132172
2048.03	0.0137468
2057.67	0.0135361
2067.32	0.0138027
2076.96	0.0145657
2086.6	0.0140097
2096.24	0.0143257
2105.89	0.0145318
2115.53	0.0149517
2125.17	0.0136936
2134.81	0.0120972
2144.45	0.0117063
2154.1	0.0110773
2163.74	0.0179356
2173.38	0.0156994
2183.02	0.0151704
2192.67	0.0171726
2202.31	0.0184307
2211.95	0.0182907
2221.59	0.0171124
2231.24	0.0181625
2240.88	0.0183368
2250.52	0.0183299
2260.16	0.0190307
2269.8	0.019797
2279.45	0.0198915
2289.09	0.0203597
2298.73	0.0199049
2308.38	0.0194511
2318.02	0.0200538
2327.66	0.0193306
2337.3	0.0189071
2346.94	0.0189564
2356.59	0.0188298
2366.23	0.0182092
2375.87	0.0184801
2385.51	0.0183208
2395.16	0.0184899
2404.8	0.0185865
2414.44	0.0189892
2424.08	0.0191361
2433.72	0.0196911
2443.37	0.0192464
2453.01	0.0205862
2462.65	0.0203949
2472.29	0.020127
2481.94	0.020304
2491.58	0.0202191
2501.22	0.0207334
2510.86	0.0209282
2520.51	0.0209495
2530.15	0.021592
2539.79	0.0213371
2549.43	0.0217276
2559.07	0.0225031
2568.72	0.0222621
2578.36	0.0225874
2588	0.0226063
2597.64	0.0226802
2607.29	0.0234843
2616.93	0.0236336
2626.57	0.0229235
2636.21	0.0234521
2645.86	0.0234325
2655.5	0.0233834
2665.14	0.0231195
2674.78	0.0231218
2684.43	0.0229784
2694.07	0.0234534
2703.71	0.0232876
2713.35	0.0235175
2722.99	0.0235548
2732.64	0.0239103
2742.28	0.0241078
2751.92	0.0241025
2761.56	0.0245426
2771.21	0.0246541
2780.85	0.0252203
2790.49	0.0251385
2800.13	0.0252021
2809.78	0.025463
2819.42	0.025572
2829.06	0.0262725
2838.7	0.026323
2848.34	0.0252482
2857.99	0.0250292
2867.63	0.0257107
2877.27	0.0264441
2886.91	0.0264674
2896.56	0.0264595
2906.2	0.0265975
2915.84	0.0258137
2925.48	0.0251047
2935.13	0.0260201
2944.77	0.0266475
2954.41	0.0271325
2964.05	0.0270675
2973.7	0.0275668
2983.34	0.0279774
2992.98	0.0280971
3002.62	0.0285399
3012.26	0.0293669
3021.91	0.0295631
3031.55	0.0298742
3041.19	0.0295349
3050.83	0.0299022
3060.48	0.0304745
3070.12	0.0302377
3079.76	0.0311914
3089.4	0.0313066
3099.05	0.0312257
3108.69	0.0319743
3118.33	0.0322147
3127.97	0.0325387
3137.61	0.0326042
3147.26	0.0329292
3156.9	0.0337718
3166.54	0.0335319
3176.18	0.0336103
3185.83	0.0342918
3195.47	0.034377
3205.11	0.0347297
3214.75	0.0346574
3224.4	0.0343497
3234.04	0.0345889
3243.68	0.0349261
3253.32	0.0354172
3262.97	0.0357605
3272.61	0.0351613
3282.25	0.0357411
3291.89	0.034952
3301.53	0.0353501
3311.18	0.0357937
3320.82	0.035781
3330.46	0.0363363
3340.1	0.0356988
3349.75	0.0357597
3359.39	0.0356838
3369.03	0.0354618
3378.67	0.0348968
3388.32	0.0346949
3397.96	0.0350235
3407.6	0.0346983
3417.24	0.035224
3426.89	0.0345327
3436.53	0.034274
3446.17	0.0344337
3455.81	0.0337272
3465.45	0.0341089
3475.1	0.0334659
3484.74	0.0325732
3494.38	0.0326334
3504.02	0.0325032
3513.67	0.032179
3523.31	0.0313701
3532.95	0.0309483
3542.59	0.0310235
3552.24	0.0300821
3561.88	0.0294174
3571.52	0.0288664
3581.16	0.0275528
3590.8	0.0269477
3600.45	0.0257813
3610.09	0.0255868
3619.73	0.0244764
3629.37	0.0239833
3639.02	0.02342
3648.66	0.0230437
3658.3	0.0222141
3667.94	0.0220457
3677.59	0.0216351
3687.23	0.0229055
3696.87	0.0223742
3706.51	0.0227576
3716.16	0.0230525
3725.8	0.0224744
3735.44	0.0228756
3745.08	0.0224152
3754.72	0.0219239
3764.37	0.0234184
3774.01	0.0236878
3783.65	0.0233345
3793.29	0.022253
3802.94	0.0226406
3812.58	0.0229323
3822.22	0.023111
3831.86	0.0236796
3841.51	0.0231129
3851.15	0.0241934
3860.79	0.0232236
3870.43	0.0234817
3880.07	0.0228313
3889.72	0.0235273
3899.36	0.0231976
3909	0.0237661
3918.64	0.0233038
3928.29	0.0233411
3937.93	0.0229453
3947.57	0.0235689
3957.21	0.0232377
3966.86	0.0236914
3976.5	0.0237148
3986.14	0.0236246
3995.78	0.0236164
