Measurement: Infrared, Infrared Data Processed
Mineral: Almandine
Rruff sample: R040076
Ideal chemistry: Fe^2+^_3_Al_2_(SiO_4_)_3_
Locality: Barton Garnet mine, Gore Mountain, Warren County, New York, USA
Source: University of Arizona Mineral Museum
Description: Red coarsely crystalline
Measured chemistry: (Fe^2+^_1.38_Mg_1.26_Ca_0.33_Mn_0.03_)_Î£=3_Al_2.00_(Si_1.00_O_4_)_3_; trace amounts of Ti
x	intensity
399.193	0
408.835	0.209258
418.477	0.246847
428.12	0.287213
437.762	0.318717
447.404	0.313722
457.047	0.277418
466.689	0.250003
476.331	0.254789
485.974	0.2065
495.616	0.172382
505.258	0.141694
514.901	0.116554
524.543	0.114238
534.185	0.0980357
543.828	0.0698555
553.47	0.0825332
563.112	0.17748
572.755	0.17465
582.397	0.112767
592.039	0.0746177
601.682	0.0478186
611.324	0.0347501
620.966	0.0309751
630.609	0.0309239
640.251	0.0341168
649.893	0.0324737
659.536	0.0278311
669.178	0.0263821
678.82	0.0263121
688.463	0.0273828
698.105	0.0292277
707.747	0.0309141
717.39	0.0342583
727.032	0.0374089
736.674	0.04252
746.317	0.0502696
755.959	0.0580055
765.601	0.0681893
775.244	0.0820427
784.886	0.101544
794.528	0.127087
804.171	0.158878
813.813	0.193784
823.455	0.231878
833.098	0.274259
842.74	0.314534
852.382	0.343381
862.025	0.357568
871.667	0.340873
881.309	0.285461
890.952	0.292825
900.594	0.280035
910.236	0.21596
919.879	0.160065
929.521	0.121271
939.163	0.12365
948.806	0.214031
958.448	0.303232
968.09	0.266071
977.733	0.200789
987.375	0.154058
997.017	0.11952
1006.66	0.0923047
1016.3	0.06836
1025.94	0.0484077
1035.59	0.0351168
1045.23	0.0279213
1054.87	0.0229762
1064.51	0.0194481
1074.16	0.01751
1083.8	0.0161015
1093.44	0.0152337
1103.08	0.0148769
1112.72	0.0142578
1122.37	0.0138372
1132.01	0.0127402
1141.65	0.0112385
1151.3	0.00971492
1160.94	0.00875646
1170.58	0.00767806
1180.22	0.00678022
1189.86	0.00640908
1199.51	0.00545649
1209.15	0.00502994
1218.79	0.00494045
1228.43	0.00476357
1238.08	0.00477997
1247.72	0.00447492
1257.36	0.00447527
1267	0.00441508
1276.64	0.00451174
1286.29	0.00460532
1295.93	0.00453648
1305.57	0.004869
1315.21	0.00520628
1324.86	0.00517768
1334.5	0.00545902
1344.14	0.00573774
1353.78	0.0060452
1363.43	0.00622785
1373.07	0.00666373
1382.71	0.00688298
1392.35	0.00673972
1401.99	0.00697538
1411.64	0.00751388
1421.28	0.00702202
1430.92	0.00749273
1440.57	0.00737532
1450.21	0.00756158
1459.85	0.00764545
1469.49	0.00772383
1479.13	0.00739302
1488.78	0.00729132
1498.42	0.00724872
1508.06	0.00716912
1517.7	0.00781607
1527.35	0.00790621
1536.99	0.00819523
1546.63	0.00905384
1556.27	0.0092231
1565.91	0.00981454
1575.56	0.0103442
1585.2	0.0107083
1594.84	0.0106684
1604.48	0.010825
1614.13	0.010835
1623.77	0.0107068
1633.41	0.010548
1643.05	0.0105231
1652.7	0.0100801
1662.34	0.0097787
1671.98	0.0100953
1681.62	0.00967123
1691.27	0.00910398
1700.91	0.00970283
1710.55	0.00987129
1720.19	0.00961066
1729.84	0.0101042
1739.48	0.0101273
1749.12	0.0100167
1758.76	0.0103465
1768.4	0.0102921
1778.05	0.0102681
1787.69	0.0102837
1797.33	0.0103106
1806.97	0.00992028
1816.62	0.00976417
1826.26	0.0102008
1835.9	0.0101398
1845.54	0.0105637
1855.18	0.010466
1864.83	0.0100857
1874.47	0.0106767
1884.11	0.0103116
1893.75	0.00989285
1903.4	0.00971684
1913.04	0.00977438
1922.68	0.00930051
1932.32	0.00864012
1941.97	0.0070184
1951.61	0.00731127
1961.25	0.00879745
1970.89	0.00695169
1980.54	0.0107977
1990.18	0.0089231
1999.82	0.00860654
2009.46	0.0117199
2019.11	0.0109761
2028.75	0.0125978
2038.39	0.0127858
2048.03	0.0150924
2057.67	0.0131608
2067.32	0.0145676
2076.96	0.0149227
2086.6	0.0147471
2096.24	0.0148687
2105.89	0.0141295
2115.53	0.0139439
2125.17	0.0128274
2134.81	0.0137678
2144.45	0.0145365
2154.1	0.0158685
2163.74	0.0212096
2173.38	0.0152173
2183.02	0.0169059
2192.67	0.0222547
2202.31	0.01822
2211.95	0.0151211
2221.59	0.0206549
2231.24	0.0177237
2240.88	0.0173108
2250.52	0.0169641
2260.16	0.0188501
2269.8	0.0178862
2279.45	0.0191572
2289.09	0.0187246
2298.73	0.0184928
2308.38	0.0185572
2318.02	0.0192517
2327.66	0.0180706
2337.3	0.0177132
2346.94	0.0180036
2356.59	0.018901
2366.23	0.0176063
2375.87	0.0182081
2385.51	0.0180495
2395.16	0.018408
2404.8	0.0181774
2414.44	0.0178557
2424.08	0.0189835
2433.72	0.0183974
2443.37	0.0202081
2453.01	0.0191466
2462.65	0.0197196
2472.29	0.0191295
2481.94	0.0195564
2491.58	0.0189196
2501.22	0.0195195
2510.86	0.0198705
2520.51	0.0208789
2530.15	0.0205468
2539.79	0.0198762
2549.43	0.0216365
2559.07	0.0206172
2568.72	0.0199314
2578.36	0.0211219
2588	0.0210758
2597.64	0.0224202
2607.29	0.0218144
2616.93	0.0206335
2626.57	0.0226088
2636.21	0.0219411
2645.86	0.0213533
2655.5	0.0228345
2665.14	0.0207052
2674.78	0.0209512
2684.43	0.0207066
2694.07	0.0213575
2703.71	0.0211291
2713.35	0.021334
2722.99	0.0211954
2732.64	0.0221484
2742.28	0.0223384
2751.92	0.0216669
2761.56	0.0222132
2771.21	0.0224043
2780.85	0.0219039
2790.49	0.0237366
2800.13	0.0227703
2809.78	0.0233023
2819.42	0.0230789
2829.06	0.0239681
2838.7	0.0232271
2848.34	0.0247326
2857.99	0.0246571
2867.63	0.0242473
2877.27	0.0235009
2886.91	0.0247545
2896.56	0.0253656
2906.2	0.025075
2915.84	0.0267363
2925.48	0.0269578
2935.13	0.0259051
2944.77	0.025472
2954.41	0.0249372
2964.05	0.0262662
2973.7	0.0250159
2983.34	0.0260191
2992.98	0.0256483
3002.62	0.0267338
3012.26	0.0253315
3021.91	0.0266343
3031.55	0.0272829
3041.19	0.0272553
3050.83	0.0273907
3060.48	0.027564
3070.12	0.0273795
3079.76	0.0276422
3089.4	0.0273303
3099.05	0.0277082
3108.69	0.0283955
3118.33	0.0283522
3127.97	0.0274616
3137.61	0.0283092
3147.26	0.0295261
3156.9	0.0295099
3166.54	0.0289598
3176.18	0.0308137
3185.83	0.0291815
3195.47	0.0307142
3205.11	0.0302661
3214.75	0.0310898
3224.4	0.0292231
3234.04	0.0306647
3243.68	0.0302659
3253.32	0.0325484
3262.97	0.0308434
3272.61	0.0313586
3282.25	0.0324933
3291.89	0.0312282
3301.53	0.0306515
3311.18	0.0315604
3320.82	0.0320108
3330.46	0.0297827
3340.1	0.0316417
3349.75	0.0315143
3359.39	0.0310752
3369.03	0.0316188
3378.67	0.0321829
3388.32	0.0328639
3397.96	0.0315371
3407.6	0.0326011
3417.24	0.0331669
3426.89	0.0323918
3436.53	0.0333565
3446.17	0.0323801
3455.81	0.0334172
3465.45	0.0330452
3475.1	0.0329304
3484.74	0.0317231
3494.38	0.0309174
3504.02	0.0318507
3513.67	0.0308762
3523.31	0.0308445
3532.95	0.0330377
3542.59	0.0315428
3552.24	0.0321372
3561.88	0.0318989
3571.52	0.0321757
3581.16	0.032946
3590.8	0.0326057
3600.45	0.0335609
3610.09	0.0295891
3619.73	0.0290997
3629.37	0.0304322
3639.02	0.0285613
3648.66	0.0332854
3658.3	0.03154
3667.94	0.0326003
3677.59	0.0308815
3687.23	0.0303418
3696.87	0.0299848
3706.51	0.0296951
3716.16	0.0335661
3725.8	0.0339537
3735.44	0.0308248
3745.08	0.0319026
3754.72	0.0310384
3764.37	0.0329121
3774.01	0.0319124
3783.65	0.0306668
3793.29	0.0304691
3802.94	0.03212
3812.58	0.0327044
3822.22	0.0312378
3831.86	0.0317658
3841.51	0.0349691
3851.15	0.0336096
3860.79	0.032405
3870.43	0.0305828
3880.07	0.0302786
3889.72	0.0353029
3899.36	0.0333905
3909	0.0305996
3918.64	0.0344317
3928.29	0.034273
3937.93	0.0301874
3947.57	0.0349426
3957.21	0.0370109
3966.86	0.0338747
3976.5	0.0361415
3986.14	0.0348779
3995.78	0.0339803
