Measurement: Infrared, Infrared Data Processed
Mineral: Almandine
Rruff sample: R040079
Ideal chemistry: Fe^2+^_3_Al_2_(SiO_4_)_3_
Locality: Ontario, Canada
Source: University of Arizona Mineral Museum
Description: Dark red dodecahedral crystal
Measured chemistry: (Fe^2+^_2.29_Mg_0.53_Ca_0.18_)_Î£=3_Al_2.00_(Si_1.00_O_4_)_3_
x	intensity
399.193	0
408.835	0.238449
418.477	0.284934
428.12	0.312671
437.762	0.335979
447.404	0.325479
457.047	0.272892
466.689	0.294696
476.331	0.249923
485.974	0.199789
495.616	0.163546
505.258	0.130842
514.901	0.103716
524.543	0.108897
534.185	0.0812841
543.828	0.066969
553.47	0.127281
563.112	0.222728
572.755	0.162837
582.397	0.103509
592.039	0.0647152
601.682	0.0407225
611.324	0.0324213
620.966	0.0330808
630.609	0.0424407
640.251	0.0445532
649.893	0.0297429
659.536	0.0250847
669.178	0.0247081
678.82	0.0257227
688.463	0.027616
698.105	0.0293739
707.747	0.0321773
717.39	0.0362984
727.032	0.0405437
736.674	0.0468022
746.317	0.0551924
755.959	0.0649405
765.601	0.077823
775.244	0.0943795
784.886	0.115315
794.528	0.140528
804.171	0.170496
813.813	0.203634
823.455	0.238319
833.098	0.278206
842.74	0.318036
852.382	0.352018
862.025	0.371882
871.667	0.362535
881.309	0.306104
890.952	0.30027
900.594	0.287521
910.236	0.216774
919.879	0.155425
929.521	0.115484
939.163	0.128636
948.806	0.24339
958.448	0.327928
968.09	0.269147
977.733	0.199624
987.375	0.152614
997.017	0.117294
1006.66	0.0885765
1016.3	0.063439
1025.94	0.0434143
1035.59	0.031664
1045.23	0.0252662
1054.87	0.0206485
1064.51	0.0174457
1074.16	0.0155312
1083.8	0.0142635
1093.44	0.0133349
1103.08	0.0121017
1112.72	0.0112226
1122.37	0.0101317
1132.01	0.00949135
1141.65	0.00884354
1151.3	0.00821765
1160.94	0.00789905
1170.58	0.00705418
1180.22	0.0065603
1189.86	0.0060663
1199.51	0.00572073
1209.15	0.00545429
1218.79	0.00557522
1228.43	0.00533273
1238.08	0.00524071
1247.72	0.00504456
1257.36	0.00492922
1267	0.0048606
1276.64	0.00442028
1286.29	0.00472776
1295.93	0.00480228
1305.57	0.00535497
1315.21	0.00565098
1324.86	0.00570294
1334.5	0.00614751
1344.14	0.00678536
1353.78	0.00744478
1363.43	0.00796266
1373.07	0.00889879
1382.71	0.00918866
1392.35	0.00985196
1401.99	0.0104159
1411.64	0.0114346
1421.28	0.0115884
1430.92	0.0123906
1440.57	0.0125089
1450.21	0.0135075
1459.85	0.0142146
1469.49	0.0154152
1479.13	0.0175005
1488.78	0.0181628
1498.42	0.0176901
1508.06	0.016849
1517.7	0.0157889
1527.35	0.0146979
1536.99	0.0137981
1546.63	0.0136529
1556.27	0.0134145
1565.91	0.0138212
1575.56	0.013596
1585.2	0.0134842
1594.84	0.0133262
1604.48	0.013452
1614.13	0.0132073
1623.77	0.0127891
1633.41	0.01217
1643.05	0.0119287
1652.7	0.0113022
1662.34	0.0113696
1671.98	0.0111872
1681.62	0.011095
1691.27	0.0107595
1700.91	0.0105227
1710.55	0.0106306
1720.19	0.0104533
1729.84	0.0111319
1739.48	0.0108631
1749.12	0.0112373
1758.76	0.0118925
1768.4	0.0119676
1778.05	0.0117677
1787.69	0.0121463
1797.33	0.0120221
1806.97	0.0116952
1816.62	0.0118457
1826.26	0.0119816
1835.9	0.0119812
1845.54	0.0122543
1855.18	0.0121588
1864.83	0.0113772
1874.47	0.0126424
1884.11	0.0121025
1893.75	0.0114751
1903.4	0.0111961
1913.04	0.0119955
1922.68	0.010721
1932.32	0.00898445
1941.97	0.00884221
1951.61	0.00978151
1961.25	0.0112801
1970.89	0.00859928
1980.54	0.0124095
1990.18	0.0110308
1999.82	0.011455
2009.46	0.0118392
2019.11	0.0101893
2028.75	0.0124129
2038.39	0.0163327
2048.03	0.0153334
2057.67	0.0149181
2067.32	0.0170234
2076.96	0.0154865
2086.6	0.0175595
2096.24	0.0161162
2105.89	0.0156736
2115.53	0.01562
2125.17	0.0163353
2134.81	0.0156786
2144.45	0.0164489
2154.1	0.0146051
2163.74	0.0185203
2173.38	0.0173185
2183.02	0.0190649
2192.67	0.0194719
2202.31	0.0180373
2211.95	0.0185878
2221.59	0.0209646
2231.24	0.0191144
2240.88	0.0176239
2250.52	0.0184005
2260.16	0.0207206
2269.8	0.0191636
2279.45	0.020042
2289.09	0.0201748
2298.73	0.0193396
2308.38	0.0200018
2318.02	0.0204686
2327.66	0.0204639
2337.3	0.0195131
2346.94	0.0194665
2356.59	0.0203328
2366.23	0.0201015
2375.87	0.0198923
2385.51	0.0196882
2395.16	0.0200815
2404.8	0.0202023
2414.44	0.0196178
2424.08	0.0204094
2433.72	0.019953
2443.37	0.0209903
2453.01	0.0219491
2462.65	0.0206183
2472.29	0.021114
2481.94	0.0209432
2491.58	0.0212457
2501.22	0.0214381
2510.86	0.0207801
2520.51	0.0220615
2530.15	0.0215084
2539.79	0.0209953
2549.43	0.0223495
2559.07	0.0238085
2568.72	0.0227296
2578.36	0.0229678
2588	0.0228226
2597.64	0.0242306
2607.29	0.0230212
2616.93	0.0225928
2626.57	0.0235442
2636.21	0.0244888
2645.86	0.0238825
2655.5	0.0248294
2665.14	0.0231121
2674.78	0.0235922
2684.43	0.0234511
2694.07	0.0231058
2703.71	0.0236229
2713.35	0.0242045
2722.99	0.0239731
2732.64	0.0239809
2742.28	0.0243163
2751.92	0.0237076
2761.56	0.0245172
2771.21	0.0247781
2780.85	0.0244548
2790.49	0.0251843
2800.13	0.025814
2809.78	0.0253097
2819.42	0.0250595
2829.06	0.0251899
2838.7	0.0249324
2848.34	0.0252162
2857.99	0.0253233
2867.63	0.0249579
2877.27	0.0248118
2886.91	0.0254995
2896.56	0.0251002
2906.2	0.0245909
2915.84	0.0251841
2925.48	0.0235991
2935.13	0.0257186
2944.77	0.0262179
2954.41	0.0268097
2964.05	0.0274611
2973.7	0.0269983
2983.34	0.0274762
2992.98	0.0283718
3002.62	0.0289304
3012.26	0.0277522
3021.91	0.0283537
3031.55	0.0284769
3041.19	0.0288652
3050.83	0.0286581
3060.48	0.0289522
3070.12	0.0296012
3079.76	0.0290545
3089.4	0.029397
3099.05	0.0301648
3108.69	0.0303737
3118.33	0.0305495
3127.97	0.0305884
3137.61	0.0316499
3147.26	0.0299306
3156.9	0.0317743
3166.54	0.0311696
3176.18	0.0323384
3185.83	0.0333152
3195.47	0.0321267
3205.11	0.0331493
3214.75	0.0320111
3224.4	0.0324767
3234.04	0.0323984
3243.68	0.032247
3253.32	0.0338774
3262.97	0.0335999
3272.61	0.0336891
3282.25	0.0340529
3291.89	0.0331958
3301.53	0.0334601
3311.18	0.0341819
3320.82	0.033277
3330.46	0.0331105
3340.1	0.0346982
3349.75	0.0343768
3359.39	0.0325594
3369.03	0.0349846
3378.67	0.0337992
3388.32	0.0335521
3397.96	0.0334527
3407.6	0.03315
3417.24	0.0349523
3426.89	0.0330362
3436.53	0.0332133
3446.17	0.0332317
3455.81	0.0340865
3465.45	0.0339466
3475.1	0.0336002
3484.74	0.0334942
3494.38	0.0330453
3504.02	0.0340773
3513.67	0.0339698
3523.31	0.0357269
3532.95	0.0351105
3542.59	0.0329721
3552.24	0.0331745
3561.88	0.0335696
3571.52	0.0356152
3581.16	0.0364791
3590.8	0.0340367
3600.45	0.033926
3610.09	0.0300346
3619.73	0.0311747
3629.37	0.0290065
3639.02	0.0296997
3648.66	0.0321127
3658.3	0.0323958
3667.94	0.0319262
3677.59	0.0318633
3687.23	0.0321647
3696.87	0.037155
3706.51	0.0308954
3716.16	0.0330887
3725.8	0.034514
3735.44	0.0328098
3745.08	0.0317681
3754.72	0.0345789
3764.37	0.0333996
3774.01	0.0341047
3783.65	0.0321796
3793.29	0.0307466
3802.94	0.0317769
3812.58	0.0310013
3822.22	0.03078
3831.86	0.0319245
3841.51	0.0331785
3851.15	0.0335802
3860.79	0.0345265
3870.43	0.0310338
3880.07	0.0312144
3889.72	0.033716
3899.36	0.0310562
3909	0.0300985
3918.64	0.0324579
3928.29	0.0338238
3937.93	0.0331784
3947.57	0.0338176
3957.21	0.0345789
3966.86	0.0342958
3976.5	0.0350347
3986.14	0.0354452
3995.78	0.033936
