Measurement: Infrared, Infrared Data Processed
Mineral: Almandine
Rruff sample: R070129
Ideal chemistry: Fe^2+^_3_Al_2_(SiO_4_)_3_
Locality: Wrangell, Wrangell Island, Wrangell-Petersburg Borough, Alaska, USA
Source: Michael Scott
Description: Dark red well-formed dodecahedral crystals in schist
Measured chemistry: (Fe^2+^_2.15_Mg_0.60_Mn_0.11_Fe^3+^_0.06_Ca_0.08_)_Σ=3_Al_2.00_((Si_0.98_Al_0.02_)_Σ=1_O_4_)_3_
x	intensity
399.193	0.112394
408.835	0.154811
418.477	0.183375
428.12	0.203864
437.762	0.210174
447.404	0.21181
457.047	0.196725
466.689	0.198469
476.331	0.182863
485.974	0.15712
495.616	0.133132
505.258	0.108509
514.901	0.0839652
524.543	0.0839698
534.185	0.068787
543.828	0.0510058
553.47	0.0871818
563.112	0.154147
572.755	0.133653
582.397	0.0909777
592.039	0.0584782
601.682	0.0383851
611.324	0.0326609
620.966	0.0325071
630.609	0.036401
640.251	0.0419879
649.893	0.0325113
659.536	0.0293678
669.178	0.0300237
678.82	0.0305542
688.463	0.0320216
698.105	0.0342902
707.747	0.0371742
717.39	0.0409708
727.032	0.0457607
736.674	0.051657
746.317	0.0596057
755.959	0.0677501
765.601	0.0772846
775.244	0.0885303
784.886	0.101763
794.528	0.116567
804.171	0.131308
813.813	0.147147
823.455	0.162577
833.098	0.17812
842.74	0.191453
852.382	0.200918
862.025	0.204209
871.667	0.198785
881.309	0.179432
890.952	0.172329
900.594	0.174457
910.236	0.145233
919.879	0.107916
929.521	0.0754547
939.163	0.0776834
948.806	0.136482
958.448	0.182119
968.09	0.17051
977.733	0.139087
987.375	0.111146
997.017	0.0863572
1006.66	0.06308
1016.3	0.0446366
1025.94	0.0305101
1035.59	0.0226235
1045.23	0.0179808
1054.87	0.0146086
1064.51	0.01216
1074.16	0.0106564
1083.8	0.00969192
1093.44	0.0094351
1103.08	0.00862551
1112.72	0.00764076
1122.37	0.00668335
1132.01	0.00616175
1141.65	0.00590009
1151.3	0.00572871
1160.94	0.00554817
1170.58	0.004804
1180.22	0.00409165
1189.86	0.00371548
1199.51	0.00292801
1209.15	0.0025312
1218.79	0.00255543
1228.43	0.00237352
1238.08	0.00221633
1247.72	0.00221463
1257.36	0.00207249
1267	0.00196071
1276.64	0.00212846
1286.29	0.00211365
1295.93	0.00230494
1305.57	0.00216256
1315.21	0.00263739
1324.86	0.00288007
1334.5	0.00294236
1344.14	0.00320319
1353.78	0.00344971
1363.43	0.00388663
1373.07	0.00422223
1382.71	0.00437678
1392.35	0.00469037
1401.99	0.00491534
1411.64	0.00526279
1421.28	0.00573713
1430.92	0.00614542
1440.57	0.00639288
1450.21	0.00669154
1459.85	0.00705656
1469.49	0.00682005
1479.13	0.00661525
1488.78	0.0068
1498.42	0.00678602
1508.06	0.00688486
1517.7	0.0062539
1527.35	0.00640777
1536.99	0.00646462
1546.63	0.00652676
1556.27	0.00686176
1565.91	0.00664237
1575.56	0.0070974
1585.2	0.0068936
1594.84	0.00700565
1604.48	0.00739811
1614.13	0.00739598
1623.77	0.00758855
1633.41	0.0075381
1643.05	0.00751261
1652.7	0.00841344
1662.34	0.00760049
1671.98	0.00759119
1681.62	0.00782701
1691.27	0.00791453
1700.91	0.00851727
1710.55	0.00832385
1720.19	0.00928092
1729.84	0.0104275
1739.48	0.00982612
1749.12	0.00862558
1758.76	0.00852687
1768.4	0.00882466
1778.05	0.00902083
1787.69	0.00845533
1797.33	0.00804403
1806.97	0.00811117
1816.62	0.00774766
1826.26	0.00841916
1835.9	0.00799857
1845.54	0.00771524
1855.18	0.00839474
1864.83	0.00836614
1874.47	0.00839966
1884.11	0.00828135
1893.75	0.00779811
1903.4	0.00766863
1913.04	0.0071119
1922.68	0.00689857
1932.32	0.00647779
1941.97	0.00664788
1951.61	0.00694089
1961.25	0.00709563
1970.89	0.00634443
1980.54	0.0103611
1990.18	0.00783808
1999.82	0.00868413
2009.46	0.0107041
2019.11	0.0113423
2028.75	0.0114319
2038.39	0.0129054
2048.03	0.0137176
2057.67	0.0134276
2067.32	0.0134133
2076.96	0.0135228
2086.6	0.012527
2096.24	0.0129186
2105.89	0.0129354
2115.53	0.0126116
2125.17	0.0127267
2134.81	0.0119506
2144.45	0.0123102
2154.1	0.0133117
2163.74	0.0179858
2173.38	0.0147313
2183.02	0.0154278
2192.67	0.0155767
2202.31	0.0156254
2211.95	0.0159474
2221.59	0.0154714
2231.24	0.0148185
2240.88	0.0149324
2250.52	0.0145113
2260.16	0.0150259
2269.8	0.0157624
2279.45	0.0157279
2289.09	0.0158132
2298.73	0.0153353
2308.38	0.0153896
2318.02	0.0158601
2327.66	0.0152208
2337.3	0.0149007
2346.94	0.0146249
2356.59	0.0149002
2366.23	0.0145476
2375.87	0.0141212
2385.51	0.0138779
2395.16	0.0140855
2404.8	0.0141451
2414.44	0.0149423
2424.08	0.014807
2433.72	0.0145844
2443.37	0.0148628
2453.01	0.0154744
2462.65	0.014966
2472.29	0.0153847
2481.94	0.015135
2491.58	0.0145996
2501.22	0.0147651
2510.86	0.0148577
2520.51	0.0153296
2530.15	0.0151923
2539.79	0.0155674
2549.43	0.0154874
2559.07	0.0155733
2568.72	0.0158637
2578.36	0.0156377
2588	0.0164921
2597.64	0.0165901
2607.29	0.0162576
2616.93	0.0167214
2626.57	0.0169087
2636.21	0.0169766
2645.86	0.017025
2655.5	0.0171598
2665.14	0.0161378
2674.78	0.0164185
2684.43	0.0158796
2694.07	0.0161541
2703.71	0.0163296
2713.35	0.0160885
2722.99	0.0163975
2732.64	0.0164644
2742.28	0.0166565
2751.92	0.016592
2761.56	0.0166516
2771.21	0.0167227
2780.85	0.0164299
2790.49	0.0167721
2800.13	0.0166167
2809.78	0.0167477
2819.42	0.0168807
2829.06	0.0170941
2838.7	0.0174734
2848.34	0.0175287
2857.99	0.0182247
2867.63	0.0182798
2877.27	0.0178386
2886.91	0.0174761
2896.56	0.0182385
2906.2	0.0187978
2915.84	0.0188391
2925.48	0.0195463
2935.13	0.0190073
2944.77	0.0181072
2954.41	0.019405
2964.05	0.0186576
2973.7	0.0178617
2983.34	0.0168883
2992.98	0.0171829
3002.62	0.0165642
3012.26	0.0165315
3021.91	0.0168688
3031.55	0.0173275
3041.19	0.0172789
3050.83	0.0172266
3060.48	0.0175947
3070.12	0.0171947
3079.76	0.0173219
3089.4	0.0177058
3099.05	0.0179044
3108.69	0.0183239
3118.33	0.0183213
3127.97	0.0178737
3137.61	0.0184124
3147.26	0.018522
3156.9	0.0183901
3166.54	0.0182516
3176.18	0.0184253
3185.83	0.0180122
3195.47	0.0186739
3205.11	0.0185912
3214.75	0.0183898
3224.4	0.0187656
3234.04	0.0184215
3243.68	0.018452
3253.32	0.0185148
3262.97	0.0183785
3272.61	0.0186834
3282.25	0.0190806
3291.89	0.0185503
3301.53	0.0186889
3311.18	0.0191768
3320.82	0.0185625
3330.46	0.018569
3340.1	0.0184919
3349.75	0.0187146
3359.39	0.0190002
3369.03	0.0187241
3378.67	0.0184904
3388.32	0.0185848
3397.96	0.0190191
3407.6	0.0188264
3417.24	0.018383
3426.89	0.0182675
3436.53	0.0189096
3446.17	0.0188842
3455.81	0.0181149
3465.45	0.0188479
3475.1	0.0183994
3484.74	0.0176255
3494.38	0.0184937
3504.02	0.0189349
3513.67	0.0185775
3523.31	0.0185122
3532.95	0.0177689
3542.59	0.0179805
3552.24	0.0180165
3561.88	0.0181098
3571.52	0.0169078
3581.16	0.0177916
3590.8	0.0171694
3600.45	0.0174705
3610.09	0.0176669
3619.73	0.0186503
3629.37	0.0183022
3639.02	0.0169886
3648.66	0.0176218
3658.3	0.017042
3667.94	0.0174491
3677.59	0.0180185
3687.23	0.0177222
3696.87	0.0172505
3706.51	0.0178271
3716.16	0.0164691
3725.8	0.0175735
3735.44	0.0184792
3745.08	0.0190817
3754.72	0.0175966
3764.37	0.0180097
3774.01	0.0187076
3783.65	0.0189495
3793.29	0.0188009
3802.94	0.0181713
3812.58	0.0183103
3822.22	0.0182537
3831.86	0.0176431
3841.51	0.0186792
3851.15	0.0178581
3860.79	0.0174274
3870.43	0.0182513
3880.07	0.0186179
3889.72	0.0171549
3899.36	0.0171927
3909	0.0181313
3918.64	0.0175507
3928.29	0.0177866
3937.93	0.0181171
3947.57	0.0174925
3957.21	0.0172893
3966.86	0.0171179
3976.5	0.0170852
3986.14	0.0184206
3995.78	0.0182039
