Measurement: Infrared, Infrared Data Processed
Mineral: Almandine
Rruff sample: R050029
Ideal chemistry: Fe^2+^_3_Al_2_(SiO_4_)_3_
Locality: Barton Garnet mine, Gore Mountain, Warren County, New York, USA
Source: University of Arizona Mineral Museum
Description: Reddish brown fragments
Measured chemistry: (Fe^2+^_1.34_Mg_1.26_Ca_0.37_Mn_0.03_)_Î£=3_Al_2.00_(Si_1.00_O_4_)_3_
x	intensity
399.193	0
408.835	0.202077
418.477	0.23472
428.12	0.262352
437.762	0.289183
447.404	0.290114
457.047	0.271172
466.689	0.239558
476.331	0.246937
485.974	0.200506
495.616	0.16716
505.258	0.139367
514.901	0.116046
524.543	0.114925
534.185	0.104251
543.828	0.0819971
553.47	0.0845556
563.112	0.170763
572.755	0.166236
582.397	0.106196
592.039	0.0700232
601.682	0.0440104
611.324	0.0306834
620.966	0.0260117
630.609	0.0256366
640.251	0.0282628
649.893	0.026547
659.536	0.0210488
669.178	0.0193681
678.82	0.0195219
688.463	0.0202162
698.105	0.0218702
707.747	0.0244202
717.39	0.0280835
727.032	0.0323847
736.674	0.0388265
746.317	0.0478234
755.959	0.0586921
765.601	0.0723225
775.244	0.0901587
784.886	0.112722
794.528	0.140248
804.171	0.170938
813.813	0.203672
823.455	0.237087
833.098	0.271946
842.74	0.303623
852.382	0.325409
862.025	0.334951
871.667	0.320165
881.309	0.272242
890.952	0.28217
900.594	0.264689
910.236	0.206515
919.879	0.159717
929.521	0.129196
939.163	0.144696
948.806	0.248326
958.448	0.314192
968.09	0.265701
977.733	0.206793
987.375	0.165401
997.017	0.134497
1006.66	0.109105
1016.3	0.088772
1025.94	0.0739524
1035.59	0.0619377
1045.23	0.0518512
1054.87	0.042588
1064.51	0.034717
1074.16	0.0275509
1083.8	0.0221134
1093.44	0.018452
1103.08	0.0161871
1112.72	0.0142796
1122.37	0.0121253
1132.01	0.0100454
1141.65	0.00856558
1151.3	0.00763742
1160.94	0.00691262
1170.58	0.0059879
1180.22	0.0055926
1189.86	0.0049278
1199.51	0.00458633
1209.15	0.0039029
1218.79	0.00384886
1228.43	0.00365337
1238.08	0.00350257
1247.72	0.00388544
1257.36	0.00391401
1267	0.00374846
1276.64	0.00418398
1286.29	0.0045439
1295.93	0.00525658
1305.57	0.00576097
1315.21	0.00618221
1324.86	0.00664718
1334.5	0.00700782
1344.14	0.00738609
1353.78	0.00758573
1363.43	0.00774433
1373.07	0.00780563
1382.71	0.00829205
1392.35	0.00880363
1401.99	0.00889823
1411.64	0.00936274
1421.28	0.00910613
1430.92	0.00925421
1440.57	0.00940483
1450.21	0.00920766
1459.85	0.00899938
1469.49	0.00872798
1479.13	0.00909483
1488.78	0.00851327
1498.42	0.00860158
1508.06	0.00894887
1517.7	0.00959426
1527.35	0.00983529
1536.99	0.0104174
1546.63	0.0109746
1556.27	0.0110006
1565.91	0.0111712
1575.56	0.0109579
1585.2	0.0106952
1594.84	0.0104311
1604.48	0.0101763
1614.13	0.0101768
1623.77	0.0101497
1633.41	0.0100236
1643.05	0.0101455
1652.7	0.00939851
1662.34	0.0101561
1671.98	0.00979841
1681.62	0.00967414
1691.27	0.0101401
1700.91	0.00970232
1710.55	0.0101642
1720.19	0.0103737
1729.84	0.0103181
1739.48	0.0103313
1749.12	0.0105248
1758.76	0.0111908
1768.4	0.0111885
1778.05	0.0112981
1787.69	0.0112046
1797.33	0.0111253
1806.97	0.011359
1816.62	0.0105399
1826.26	0.0110125
1835.9	0.0110411
1845.54	0.0114728
1855.18	0.0115642
1864.83	0.0119085
1874.47	0.0115757
1884.11	0.0116133
1893.75	0.00967099
1903.4	0.00996509
1913.04	0.00927331
1922.68	0.00834844
1932.32	0.00894176
1941.97	0.00809815
1951.61	0.00624604
1961.25	0.00744381
1970.89	0.00439058
1980.54	0.00919077
1990.18	0.00811144
1999.82	0.00799766
2009.46	0.00656387
2019.11	0.00980744
2028.75	0.00962653
2038.39	0.00997696
2048.03	0.0140847
2057.67	0.0124924
2067.32	0.0127658
2076.96	0.0136967
2086.6	0.0147755
2096.24	0.0145929
2105.89	0.0153245
2115.53	0.0142264
2125.17	0.014172
2134.81	0.0135145
2144.45	0.012687
2154.1	0.00992675
2163.74	0.015271
2173.38	0.0165852
2183.02	0.0189816
2192.67	0.0172804
2202.31	0.0159552
2211.95	0.0171736
2221.59	0.0203521
2231.24	0.0190557
2240.88	0.020691
2250.52	0.0203112
2260.16	0.0209119
2269.8	0.0213576
2279.45	0.0222658
2289.09	0.0224153
2298.73	0.0220994
2308.38	0.0226298
2318.02	0.0229576
2327.66	0.0230122
2337.3	0.0232382
2346.94	0.0230915
2356.59	0.0237683
2366.23	0.0235308
2375.87	0.022955
2385.51	0.0218919
2395.16	0.0219977
2404.8	0.0226981
2414.44	0.021987
2424.08	0.0230014
2433.72	0.022137
2443.37	0.0225265
2453.01	0.0240536
2462.65	0.0225544
2472.29	0.0227999
2481.94	0.0234693
2491.58	0.0232648
2501.22	0.0239594
2510.86	0.0249724
2520.51	0.0227247
2530.15	0.0254028
2539.79	0.0234327
2549.43	0.0244516
2559.07	0.0246958
2568.72	0.0260509
2578.36	0.0250072
2588	0.0268709
2597.64	0.0268255
2607.29	0.02654
2616.93	0.0263288
2626.57	0.0276233
2636.21	0.0276773
2645.86	0.0276032
2655.5	0.0278978
2665.14	0.0273691
2674.78	0.0273194
2684.43	0.0270015
2694.07	0.0271102
2703.71	0.0278688
2713.35	0.0273968
2722.99	0.0282708
2732.64	0.0285527
2742.28	0.0280514
2751.92	0.0282993
2761.56	0.0284374
2771.21	0.028782
2780.85	0.0290828
2790.49	0.0293523
2800.13	0.0284383
2809.78	0.0293416
2819.42	0.0304485
2829.06	0.0293464
2838.7	0.0297728
2848.34	0.0289643
2857.99	0.0301928
2867.63	0.0300637
2877.27	0.0302304
2886.91	0.0307109
2896.56	0.031694
2906.2	0.0305831
2915.84	0.0309179
2925.48	0.0318333
2935.13	0.0306596
2944.77	0.030991
2954.41	0.0298831
2964.05	0.0324663
2973.7	0.0325068
2983.34	0.0310299
2992.98	0.0311674
3002.62	0.0330073
3012.26	0.032596
3021.91	0.0321784
3031.55	0.0328949
3041.19	0.0329113
3050.83	0.0335115
3060.48	0.034656
3070.12	0.0345434
3079.76	0.0353443
3089.4	0.0350873
3099.05	0.0343724
3108.69	0.0355461
3118.33	0.0353113
3127.97	0.036389
3137.61	0.03658
3147.26	0.036506
3156.9	0.0358196
3166.54	0.0381017
3176.18	0.0393458
3185.83	0.0365836
3195.47	0.0387396
3205.11	0.0375802
3214.75	0.0391993
3224.4	0.0392851
3234.04	0.0395904
3243.68	0.0388736
3253.32	0.0396068
3262.97	0.0396081
3272.61	0.0406349
3282.25	0.0380061
3291.89	0.0395703
3301.53	0.0399545
3311.18	0.0403403
3320.82	0.0386635
3330.46	0.0412311
3340.1	0.0390168
3349.75	0.039218
3359.39	0.0409039
3369.03	0.0413907
3378.67	0.0424113
3388.32	0.0423529
3397.96	0.0402434
3407.6	0.041306
3417.24	0.0418052
3426.89	0.039176
3436.53	0.0415432
3446.17	0.0406401
3455.81	0.0402517
3465.45	0.0415378
3475.1	0.0405585
3484.74	0.0394579
3494.38	0.0418327
3504.02	0.039642
3513.67	0.0390792
3523.31	0.039481
3532.95	0.0407699
3542.59	0.0421166
3552.24	0.0414514
3561.88	0.0409115
3571.52	0.0406541
3581.16	0.040559
3590.8	0.041369
3600.45	0.0418403
3610.09	0.041165
3619.73	0.0418998
3629.37	0.0421829
3639.02	0.0404091
3648.66	0.0405837
3658.3	0.0408903
3667.94	0.0393431
3677.59	0.0431276
3687.23	0.040733
3696.87	0.041252
3706.51	0.0406041
3716.16	0.0413732
3725.8	0.0416675
3735.44	0.042087
3745.08	0.0465974
3754.72	0.0412305
3764.37	0.0431678
3774.01	0.0427117
3783.65	0.0418099
3793.29	0.0454246
3802.94	0.0440991
3812.58	0.0440954
3822.22	0.0463798
3831.86	0.0459023
3841.51	0.0451311
3851.15	0.0462481
3860.79	0.0444003
3870.43	0.0484149
3880.07	0.0437599
3889.72	0.0485828
3899.36	0.0473735
3909	0.0452582
3918.64	0.0476208
3928.29	0.0457752
3937.93	0.0464912
3947.57	0.0457393
3957.21	0.0492974
3966.86	0.0465704
3976.5	0.0445702
3986.14	0.0466339
3995.78	0.0470457
