Measurement: Infrared, Infrared Data Processed
Mineral: Alum-(K)
Rruff sample: R040134
Ideal chemistry: KAl(S^6+^O_4_)_2_12H_2_O
Locality: Alunite mine, Esmeralda County, Nevada, USA
Source: University of Arizona Mineral Museum
Description: Colorless coarsely crystalline massive
Measured chemistry: (K_0.86_(NH_4_)_0.14_)_Σ=1_Al_1.00_(S_1.00_O_4_)_2_·12H_2_O ; NH_4_ not measured but estimated by stoichiometry
x	intensity
399.193	0
408.835	0.0600121
418.477	0.0617913
428.12	0.0682103
437.762	0.0726454
447.404	0.0793901
457.047	0.0875932
466.689	0.0903795
476.331	0.0884601
485.974	0.0961073
495.616	0.0973616
505.258	0.105081
514.901	0.109778
524.543	0.111455
534.185	0.115743
543.828	0.124761
553.47	0.143943
563.112	0.171158
572.755	0.192002
582.397	0.20248
592.039	0.202267
601.682	0.186803
611.324	0.177217
620.966	0.149444
630.609	0.150263
640.251	0.147377
649.893	0.145943
659.536	0.146906
669.178	0.149024
678.82	0.148999
688.463	0.146669
698.105	0.141973
707.747	0.131093
717.39	0.118579
727.032	0.103488
736.674	0.0905006
746.317	0.0807242
755.959	0.0732723
765.601	0.0664103
775.244	0.0622571
784.886	0.0604614
794.528	0.0599219
804.171	0.0598731
813.813	0.0625981
823.455	0.064359
833.098	0.067346
842.74	0.0714609
852.382	0.0770878
862.025	0.0852645
871.667	0.0934771
881.309	0.100804
890.952	0.108387
900.594	0.118646
910.236	0.124986
919.879	0.125253
929.521	0.120783
939.163	0.112022
948.806	0.104065
958.448	0.0980401
968.09	0.0990863
977.733	0.104767
987.375	0.0958279
997.017	0.0987365
1006.66	0.109038
1016.3	0.126313
1025.94	0.160962
1035.59	0.216641
1045.23	0.294459
1054.87	0.364122
1064.51	0.38029
1074.16	0.382293
1083.8	0.415477
1093.44	0.372619
1103.08	0.272078
1112.72	0.18393
1122.37	0.122368
1132.01	0.0783081
1141.65	0.0529582
1151.3	0.0430681
1160.94	0.0408458
1170.58	0.0413553
1180.22	0.0480855
1189.86	0.0536959
1199.51	0.0431747
1209.15	0.0284391
1218.79	0.0231174
1228.43	0.0208006
1238.08	0.0193542
1247.72	0.019313
1257.36	0.0194325
1267	0.0181672
1276.64	0.0178417
1286.29	0.0172475
1295.93	0.0182887
1305.57	0.0189016
1315.21	0.0194774
1324.86	0.0203008
1334.5	0.0217874
1344.14	0.0230699
1353.78	0.0235864
1363.43	0.0253463
1373.07	0.0262297
1382.71	0.0275201
1392.35	0.0278973
1401.99	0.0292849
1411.64	0.0306477
1421.28	0.032061
1430.92	0.0350495
1440.57	0.0362588
1450.21	0.0371621
1459.85	0.0381733
1469.49	0.0375236
1479.13	0.0393104
1488.78	0.0406237
1498.42	0.041765
1508.06	0.0435691
1517.7	0.0454132
1527.35	0.0476529
1536.99	0.0501602
1546.63	0.0522715
1556.27	0.0564701
1565.91	0.0602218
1575.56	0.0652318
1585.2	0.0705595
1594.84	0.0763834
1604.48	0.0810102
1614.13	0.0846903
1623.77	0.0847383
1633.41	0.0830526
1643.05	0.0809073
1652.7	0.0793106
1662.34	0.0757541
1671.98	0.071406
1681.62	0.0668176
1691.27	0.0624009
1700.91	0.0551024
1710.55	0.0503451
1720.19	0.0481388
1729.84	0.0447924
1739.48	0.0414693
1749.12	0.0399355
1758.76	0.0375722
1768.4	0.0361315
1778.05	0.0351225
1787.69	0.0321205
1797.33	0.0320116
1806.97	0.0308653
1816.62	0.0291161
1826.26	0.0285935
1835.9	0.0279494
1845.54	0.0296654
1855.18	0.0274984
1864.83	0.0264261
1874.47	0.024761
1884.11	0.0268123
1893.76	0.0255942
1903.4	0.0260748
1913.04	0.0228146
1922.68	0.0263967
1932.32	0.0227972
1941.97	0.0249579
1951.61	0.0253484
1961.25	0.0225785
1970.89	0.0200204
1980.54	0.0239171
1990.18	0.0220741
1999.82	0.0192547
2009.46	0.0267375
2019.11	0.0251773
2028.75	0.0216638
2038.39	0.023638
2048.03	0.0259604
2057.67	0.028126
2067.32	0.0254727
2076.96	0.0291738
2086.6	0.0292165
2096.24	0.0295191
2105.89	0.0306013
2115.53	0.026762
2125.17	0.0281445
2134.81	0.025482
2144.45	0.0209542
2154.1	0.0132945
2163.74	0.0217735
2173.38	0.0193827
2183.02	0.0255869
2192.67	0.0268425
2202.31	0.0297249
2211.95	0.0298996
2221.59	0.0285962
2231.24	0.0371437
2240.88	0.0397672
2250.52	0.0399712
2260.16	0.0372072
2269.8	0.042496
2279.45	0.0484384
2289.09	0.046254
2298.73	0.0509994
2308.38	0.0544546
2318.02	0.0542818
2327.66	0.0580725
2337.3	0.0585972
2346.94	0.0644359
2356.59	0.0667097
2366.23	0.0675016
2375.87	0.0718113
2385.51	0.0781543
2395.16	0.0858378
2404.8	0.0890454
2414.44	0.0914357
2424.08	0.0986563
2433.72	0.101045
2443.37	0.106129
2453.01	0.108253
2462.65	0.110261
2472.3	0.111713
2481.94	0.109888
2491.58	0.109902
2501.22	0.108028
2510.86	0.107178
2520.51	0.102871
2530.15	0.102194
2539.79	0.102822
2549.43	0.102342
2559.08	0.10217
2568.72	0.105553
2578.36	0.107289
2588	0.106232
2597.64	0.106412
2607.29	0.109504
2616.93	0.113337
2626.57	0.11594
2636.21	0.119465
2645.86	0.121076
2655.5	0.125087
2665.14	0.126464
2674.78	0.133757
2684.43	0.137664
2694.07	0.143629
2703.71	0.146389
2713.35	0.152041
2722.99	0.159477
2732.64	0.163189
2742.28	0.170525
2751.92	0.176926
2761.57	0.184583
2771.21	0.187661
2780.85	0.198013
2790.49	0.20293
2800.13	0.209033
2809.78	0.216668
2819.42	0.221397
2829.06	0.226373
2838.7	0.231301
2848.35	0.236395
2857.99	0.237557
2867.63	0.245236
2877.27	0.247101
2886.91	0.249152
2896.56	0.253655
2906.2	0.250939
2915.84	0.250014
2925.48	0.247114
2935.13	0.24758
2944.77	0.246034
2954.41	0.242332
2964.05	0.236006
2973.7	0.230886
2983.34	0.224404
2992.98	0.225882
3002.62	0.215165
3012.26	0.212803
3021.91	0.208655
3031.55	0.200207
3041.19	0.196867
3050.84	0.192374
3060.48	0.182729
3070.12	0.176807
3079.76	0.177723
3089.4	0.168126
3099.05	0.166797
3108.69	0.164213
3118.33	0.155986
3127.97	0.155487
3137.62	0.150276
3147.26	0.148838
3156.9	0.147621
3166.54	0.146714
3176.18	0.142812
3185.83	0.143939
3195.47	0.142391
3205.11	0.138965
3214.75	0.140322
3224.4	0.139352
3234.04	0.144227
3243.68	0.148114
3253.32	0.146994
3262.97	0.154524
3272.61	0.158868
3282.25	0.165494
3291.89	0.180593
3301.53	0.191492
3311.18	0.208041
3320.82	0.218034
3330.46	0.228027
3340.11	0.242782
3349.75	0.247255
3359.39	0.236315
3369.03	0.226622
3378.67	0.216152
3388.32	0.214422
3397.96	0.189112
3407.6	0.177941
3417.24	0.162552
3426.89	0.149014
3436.53	0.134524
3446.17	0.124746
3455.81	0.112331
3465.45	0.113046
3475.1	0.0971446
3484.74	0.0924525
3494.38	0.0789443
3504.02	0.0789616
3513.67	0.0650015
3523.31	0.067959
3532.95	0.0606794
3542.59	0.0558836
3552.24	0.0467548
3561.88	0.0459154
3571.52	0.0317732
3581.16	0.0218892
3590.8	0.0267923
3600.45	0.0197393
3610.09	0.0114792
3619.73	0.0151408
3629.38	0.0219485
3639.02	0.00389891
3648.66	0.0109613
3658.3	0.0095821
3667.94	0.00480015
3677.59	0.0151555
3687.23	0.0106188
3696.87	0.00698572
3706.51	0.0236674
3716.16	0.00139137
3725.8	0.0142206
3735.44	0.00221551
3745.08	0.0147936
3754.72	0.0162147
3764.37	0.010314
3774.01	-0.000271707
3783.65	0.0110744
3793.29	0.00679721
3802.94	0.00598607
3812.58	0.0118159
3822.22	0.00913611
3831.86	0.00531015
3841.51	0.0201306
3851.15	0.0110972
3860.79	0.0228032
3870.43	0.0165937
3880.07	0.0101717
3889.72	0.00703173
3899.36	0.013984
3909	0.0127713
3918.64	0.0111903
3928.29	0.0047512
3937.93	0.0135113
3947.57	0.00819265
3957.21	0.00608469
3966.86	0.015844
3976.5	0.00757366
3986.14	0.0122294
3995.78	0.0226468
