Measurement: Infrared, Infrared Data Processed
Mineral: Amarantite
Rruff sample: R050153
Ideal chemistry: Fe^3+^_2_O(S^6+^O_4_)_2_7H_2_O
Locality: Paposo, Antofagasta, Chile
Source: Jim McGlasson
Description: Aggregate of red radiating platy crystals
Measured chemistry: Fe^3+^_2.00_(S_1.00_O_4_)_2_OÂ·7H_2_O
x	intensity
374.123	0.101569
383.765	0.120535
393.407	0.129393
403.05	0.146202
412.692	0.176598
422.334	0.194724
431.976	0.169039
441.619	0.164802
451.261	0.194644
460.904	0.208749
470.546	0.184938
480.188	0.180197
489.83	0.167276
499.473	0.189715
509.115	0.223201
518.758	0.244052
528.4	0.210422
538.042	0.178777
547.684	0.164618
557.327	0.160618
566.969	0.165153
576.611	0.177485
586.254	0.19139
595.896	0.193277
605.538	0.163844
615.181	0.170884
624.823	0.154094
634.466	0.155045
644.108	0.153541
653.75	0.128509
663.393	0.107356
673.035	0.0963232
682.677	0.0871435
692.319	0.0855024
701.962	0.0867174
711.604	0.0906299
721.246	0.0943273
730.889	0.0968872
740.531	0.0988596
750.173	0.102824
759.816	0.108247
769.458	0.110962
779.101	0.107887
788.743	0.101459
798.385	0.0967653
808.028	0.0959122
817.67	0.0972353
827.312	0.100706
836.955	0.10282
846.597	0.0997249
856.239	0.0910543
865.881	0.0833663
875.524	0.0783262
885.166	0.0758061
894.808	0.0742408
904.451	0.0726455
914.093	0.0719816
923.736	0.0722722
933.378	0.0754564
943.02	0.0823319
952.663	0.0950324
962.305	0.117996
971.947	0.159016
981.59	0.233618
991.232	0.3463
1000.87	0.374356
1010.52	0.249989
1020.16	0.194967
1029.8	0.255563
1039.44	0.350993
1049.09	0.240439
1058.73	0.210152
1068.37	0.279458
1078.01	0.374083
1087.65	0.290749
1097.3	0.278975
1106.94	0.330657
1116.58	0.253543
1126.22	0.229819
1135.87	0.25462
1145.51	0.228494
1155.15	0.172417
1164.79	0.149401
1174.44	0.161109
1184.08	0.190661
1193.72	0.206036
1203.36	0.187416
1213.01	0.162941
1222.65	0.115881
1232.29	0.071582
1241.93	0.050039
1251.58	0.0357307
1261.22	0.0260975
1270.86	0.0214235
1280.5	0.0189394
1290.14	0.0176891
1299.79	0.0168287
1309.43	0.0165717
1319.07	0.0166158
1328.71	0.0165922
1338.36	0.0171504
1348	0.0172624
1357.64	0.0174892
1367.28	0.018069
1376.92	0.0185857
1386.57	0.0192055
1396.21	0.0200533
1405.85	0.0207902
1415.49	0.0220945
1425.14	0.0235374
1434.78	0.023538
1444.42	0.0230202
1454.06	0.0232293
1463.71	0.0231462
1473.35	0.0240206
1482.99	0.0239832
1492.63	0.0245831
1502.28	0.0251838
1511.92	0.0259318
1521.56	0.0277664
1531.2	0.0282515
1540.85	0.0305872
1550.49	0.0309234
1560.13	0.0338922
1569.77	0.0351255
1579.41	0.0376037
1589.06	0.0413058
1598.7	0.0466947
1608.34	0.053844
1617.98	0.0658854
1627.63	0.0703683
1637.27	0.0747288
1646.91	0.0741089
1656.55	0.0694506
1666.19	0.0622797
1675.84	0.0531577
1685.48	0.0437735
1695.12	0.0337683
1704.77	0.0269091
1714.41	0.0227173
1724.05	0.0198526
1733.69	0.0192133
1743.33	0.0163563
1752.98	0.0153348
1762.62	0.0149478
1772.26	0.0145621
1781.9	0.0136794
1791.55	0.0138395
1801.19	0.0133986
1810.83	0.0129106
1820.47	0.0126591
1830.12	0.0125719
1839.76	0.0121473
1849.4	0.0122716
1859.04	0.0119785
1868.68	0.0120109
1878.33	0.0113768
1887.97	0.0119846
1897.61	0.0120001
1907.25	0.0128247
1916.9	0.0124517
1926.54	0.0120533
1936.18	0.0127231
1945.82	0.011845
1955.46	0.0112216
1965.11	0.0135564
1974.75	0.0116578
1984.39	0.0133473
1994.04	0.0130034
2003.68	0.0119469
2013.32	0.0151148
2022.96	0.0157241
2032.6	0.0169796
2042.25	0.0175894
2051.89	0.0186674
2061.53	0.0163787
2071.17	0.0174356
2080.82	0.0180205
2090.46	0.0186821
2100.1	0.0202839
2109.74	0.0205253
2119.39	0.0201497
2129.03	0.0202533
2138.67	0.0206151
2148.31	0.0203075
2157.95	0.0207588
2167.6	0.0242095
2177.24	0.021857
2186.88	0.0214433
2196.52	0.0232726
2206.17	0.0215305
2215.81	0.0205426
2225.45	0.0225822
2235.09	0.0245651
2244.74	0.0231904
2254.38	0.0237227
2264.02	0.0224372
2273.66	0.023856
2283.3	0.0234185
2292.95	0.0235004
2302.59	0.0247172
2312.23	0.0249495
2321.87	0.0263199
2331.52	0.0264572
2341.16	0.0263911
2350.8	0.0262471
2360.44	0.0272359
2370.09	0.0270333
2379.73	0.0261751
2389.37	0.0268416
2399.01	0.0266879
2408.66	0.0268743
2418.3	0.0274624
2427.94	0.0274523
2437.58	0.0281977
2447.22	0.0284373
2456.87	0.0290725
2466.51	0.0285601
2476.15	0.02929
2485.79	0.0289868
2495.44	0.0286168
2505.08	0.0293546
2514.72	0.0293178
2524.36	0.0290293
2534.01	0.0295749
2543.65	0.0296595
2553.29	0.0304728
2562.93	0.0307176
2572.57	0.0313241
2582.22	0.032226
2591.86	0.0323037
2601.5	0.0329077
2611.14	0.0345965
2620.79	0.0357196
2630.43	0.0367357
2640.07	0.0381874
2649.71	0.0390544
2659.36	0.0405562
2669	0.0418747
2678.64	0.0434068
2688.28	0.0445835
2697.93	0.0464224
2707.57	0.0483765
2717.21	0.0505391
2726.85	0.0524346
2736.49	0.0547323
2746.14	0.0570399
2755.78	0.059658
2765.42	0.0623356
2775.06	0.065464
2784.71	0.0685234
2794.35	0.0717144
2803.99	0.0752234
2813.63	0.0788575
2823.28	0.0827243
2832.92	0.0873006
2842.56	0.0917279
2852.2	0.0950282
2861.84	0.10055
2871.49	0.106493
2881.13	0.111903
2890.77	0.118525
2900.41	0.124675
2910.06	0.131005
2919.7	0.137122
2929.34	0.144735
2938.98	0.151789
2948.62	0.159907
2958.27	0.168344
2967.91	0.175926
2977.55	0.183863
2987.2	0.191653
2996.84	0.199514
3006.48	0.207814
3016.12	0.212823
3025.76	0.222544
3035.41	0.230176
3045.05	0.23637
3054.69	0.242964
3064.33	0.247911
3073.98	0.251034
3083.62	0.251886
3093.26	0.250708
3102.9	0.246361
3112.55	0.242574
3122.19	0.239305
3131.83	0.237486
3141.47	0.237254
3151.11	0.237206
3160.76	0.237988
3170.4	0.239283
3180.04	0.241443
3189.68	0.244052
3199.33	0.247067
3208.97	0.24992
3218.61	0.252888
3228.25	0.255847
3237.9	0.258649
3247.54	0.261629
3257.18	0.261868
3266.82	0.262685
3276.47	0.261196
3286.11	0.259634
3295.75	0.258308
3305.39	0.255574
3315.03	0.253676
3324.68	0.251093
3334.32	0.248185
3343.96	0.246102
3353.6	0.243841
3363.25	0.244933
3372.89	0.251502
3382.53	0.260852
3392.17	0.264555
3401.82	0.253121
3411.46	0.230698
3421.1	0.207995
3430.74	0.185925
3440.39	0.165278
3450.03	0.148153
3459.67	0.134469
3469.31	0.124561
3478.95	0.117507
3488.6	0.112155
3498.24	0.109553
3507.88	0.114262
3517.52	0.124018
3527.17	0.124326
3536.81	0.0996555
3546.45	0.076746
3556.09	0.0600961
3565.74	0.0480235
3575.38	0.0367739
3585.02	0.0290048
3594.66	0.0234411
3604.3	0.0180807
3613.95	0.0143562
3623.59	0.0103534
3633.23	0.00653828
3642.87	0.00602444
3652.52	0.00439332
3662.16	0.00241039
3671.8	0.00291679
3681.44	0.000142752
3691.09	0.00186755
3700.73	0.00142623
3710.37	0.00174467
3720.01	0.000289515
3729.66	0.000923277
3739.3	0.000626548
3748.94	0.00259223
3758.58	0.00148962
3768.22	0.00213061
3777.87	0.00210057
3787.51	0.00133121
3797.15	0.00340696
3806.79	0.00184622
3816.44	0.00327119
3826.08	0.00211531
3835.72	0.00280601
3845.36	0.00250881
3855.01	0.00452782
3864.65	0.00327392
3874.29	0.00362444
3883.93	0.00384093
3893.57	0.00320794
3903.22	0.00503908
3912.86	0.00247758
3922.5	0.00256548
3932.14	0.00440379
3941.79	0.004312
3951.43	0.00290734
3961.07	0.00250545
3970.71	0.00384492
3980.36	0.00324659
3990	0.00304802
3999.64	0.00437757
