Measurement: Infrared, Infrared Data Processed
Mineral: Amblygonite
Rruff sample: R040067
Ideal chemistry: LiAlPO_4_F
Locality: Montebras, France
Source: University of Arizona Mineral Museum
Description: Pale blue fine-grained massive, associated with wavellite
Measured chemistry: (Li_0.76_Na_0.24_)Al(PO_4_)(F_0.80_(OH)_0.20_)
x	intensity
399.193	0
408.835	0.240908
418.477	0.228577
428.12	0.217631
437.762	0.208945
447.404	0.225121
457.047	0.236465
466.689	0.241399
476.331	0.238587
485.974	0.21914
495.616	0.194413
505.258	0.172799
514.901	0.161835
524.543	0.161781
534.185	0.167703
543.828	0.160457
553.47	0.146733
563.112	0.133014
572.755	0.123293
582.397	0.122598
592.039	0.130385
601.682	0.117176
611.324	0.108726
620.966	0.105221
630.609	0.105896
640.251	0.107052
649.893	0.0954377
659.536	0.0812298
669.178	0.0684637
678.82	0.0551408
688.463	0.0434023
698.105	0.0347891
707.747	0.0292608
717.39	0.0266179
727.032	0.0254339
736.674	0.0248938
746.317	0.0242773
755.959	0.0254971
765.601	0.0261156
775.244	0.0283211
784.886	0.0324352
794.528	0.0412184
804.171	0.0542885
813.813	0.0654635
823.455	0.068313
833.098	0.0592788
842.74	0.0436877
852.382	0.0327623
862.025	0.0297713
871.667	0.0296558
881.309	0.0302319
890.952	0.0321812
900.594	0.0352518
910.236	0.0390369
919.879	0.0441722
929.521	0.0487975
939.163	0.0563058
948.806	0.0678027
958.448	0.0853458
968.09	0.106564
977.733	0.136695
987.375	0.183524
997.017	0.24211
1006.66	0.280833
1016.3	0.290595
1025.94	0.281232
1035.59	0.270312
1045.23	0.294198
1054.87	0.334021
1064.51	0.349523
1074.16	0.334139
1083.8	0.303596
1093.44	0.266149
1103.08	0.229554
1112.72	0.198049
1122.37	0.170366
1132.01	0.144395
1141.65	0.120637
1151.3	0.09822
1160.94	0.0802327
1170.58	0.0656426
1180.22	0.053937
1189.86	0.0466569
1199.51	0.0408665
1209.15	0.030035
1218.79	0.017943
1228.43	0.0121178
1238.08	0.00898317
1247.72	0.00751569
1257.36	0.00622708
1267	0.00590847
1276.64	0.00545825
1286.29	0.00492723
1295.93	0.00492624
1305.57	0.00419739
1315.21	0.0044884
1324.86	0.00440457
1334.5	0.00419289
1344.14	0.00408717
1353.78	0.00417247
1363.43	0.00416178
1373.07	0.00390383
1382.71	0.00414621
1392.35	0.00417298
1401.99	0.00430387
1411.64	0.00449836
1421.28	0.00477153
1430.92	0.00477141
1440.57	0.00476103
1450.21	0.0051691
1459.85	0.00513675
1469.49	0.00507408
1479.13	0.00510176
1488.78	0.0050298
1498.42	0.00526972
1508.06	0.00565062
1517.7	0.00591435
1527.35	0.00637619
1536.99	0.00674143
1546.63	0.00714033
1556.27	0.00757865
1565.91	0.00877263
1575.56	0.008886
1585.2	0.010236
1594.84	0.0106455
1604.48	0.0107974
1614.13	0.0112425
1623.77	0.011611
1633.41	0.0115062
1643.05	0.0116923
1652.7	0.011679
1662.34	0.0104623
1671.98	0.00888951
1681.62	0.00802975
1691.27	0.00740172
1700.91	0.00697247
1710.55	0.00587753
1720.19	0.00566771
1729.84	0.00523224
1739.48	0.0045677
1749.12	0.00461839
1758.76	0.00508261
1768.4	0.00488691
1778.05	0.00491736
1787.69	0.00500251
1797.33	0.00470881
1806.97	0.00451611
1816.62	0.00446673
1826.26	0.00578508
1835.9	0.00496334
1845.54	0.00505012
1855.18	0.00449531
1864.83	0.00438138
1874.47	0.00408051
1884.11	0.00400022
1893.75	0.00384584
1903.4	0.00370165
1913.04	0.00396301
1922.68	0.00343868
1932.32	0.00278098
1941.97	0.000267667
1951.61	0.0012355
1961.25	-0.000520439
1970.89	-0.000573156
1980.54	-0.000368812
1990.18	-0.0020779
1999.82	-0.00139332
2009.46	-0.00184753
2019.11	-0.00498451
2028.75	-0.00276262
2038.39	-0.00284499
2048.03	-0.000537589
2057.67	-8.76023e-05
2067.32	0.00195376
2076.96	0.00130136
2086.6	0.00164037
2096.24	0.00125003
2105.89	0.00134691
2115.53	0.00226733
2125.17	-0.00115464
2134.81	-0.00290397
2144.45	-0.00293925
2154.1	-0.00882832
2163.74	-0.00169389
2173.38	-0.00454896
2183.02	-0.00211415
2192.67	-0.0032774
2202.31	0.00175179
2211.95	0.000978199
2221.59	0.00201185
2231.24	0.000712547
2240.88	0.00364453
2250.52	0.00381654
2260.16	0.004653
2269.8	0.00545012
2279.45	0.00587734
2289.09	0.0077093
2298.73	0.00822939
2308.38	0.00818294
2318.02	0.00866228
2327.66	0.008096
2337.3	0.00802361
2346.94	0.00812654
2356.59	0.00893049
2366.23	0.00836305
2375.87	0.00749735
2385.51	0.00838716
2395.16	0.00797336
2404.8	0.00831357
2414.44	0.00910834
2424.08	0.00928261
2433.72	0.00922297
2443.37	0.00969358
2453.01	0.00836781
2462.65	0.00950305
2472.29	0.00945166
2481.94	0.00964467
2491.58	0.0091489
2501.22	0.00799912
2510.86	0.00898153
2520.51	0.0099237
2530.15	0.00960709
2539.79	0.00906717
2549.43	0.00986736
2559.07	0.00938952
2568.72	0.00972981
2578.36	0.0105417
2588	0.0113245
2597.64	0.0114191
2607.29	0.0112632
2616.93	0.0112008
2626.57	0.0113104
2636.21	0.0112663
2645.86	0.0115068
2655.5	0.0113847
2665.14	0.0110714
2674.78	0.0119246
2684.43	0.0113964
2694.07	0.0117899
2703.71	0.0117722
2713.35	0.0124466
2722.99	0.0126909
2732.64	0.0120166
2742.28	0.0126532
2751.92	0.0128333
2761.56	0.0134859
2771.21	0.0139776
2780.85	0.0138136
2790.49	0.0140897
2800.13	0.0148467
2809.78	0.0152758
2819.42	0.015012
2829.06	0.0152555
2838.7	0.0151488
2848.34	0.015477
2857.99	0.0155088
2867.63	0.0154101
2877.27	0.0164677
2886.91	0.0170417
2896.56	0.0179366
2906.2	0.0182962
2915.84	0.0168408
2925.48	0.0166717
2935.13	0.0183455
2944.77	0.0184416
2954.41	0.0196394
2964.05	0.0195628
2973.7	0.0207133
2983.34	0.0207054
2992.98	0.0220149
3002.62	0.0224155
3012.26	0.0223779
3021.91	0.0231727
3031.55	0.0240487
3041.19	0.0253642
3050.83	0.0262037
3060.48	0.026182
3070.12	0.0263302
3079.76	0.0255423
3089.4	0.0270015
3099.05	0.0280282
3108.69	0.0282778
3118.33	0.0283276
3127.97	0.0279919
3137.61	0.0284364
3147.26	0.0289635
3156.9	0.0286399
3166.54	0.0300642
3176.18	0.0287967
3185.83	0.0302839
3195.47	0.0297691
3205.11	0.0314908
3214.75	0.0308022
3224.4	0.0324912
3234.04	0.0313774
3243.68	0.0309861
3253.32	0.0333825
3262.97	0.0339006
3272.61	0.0347584
3282.25	0.0337959
3291.89	0.0350047
3301.53	0.0356303
3311.18	0.0388678
3320.82	0.0424072
3330.46	0.0450616
3340.1	0.047543
3349.75	0.048392
3359.39	0.0494377
3369.03	0.0494606
3378.67	0.0458306
3388.32	0.0452072
3397.96	0.0389778
3407.6	0.0320961
3417.24	0.0294336
3426.89	0.0265695
3436.53	0.0271435
3446.17	0.0268038
3455.81	0.0251916
3465.45	0.0259681
3475.1	0.0279331
3484.74	0.0293817
3494.38	0.0324244
3504.02	0.0344532
3513.67	0.0376718
3523.31	0.0346885
3532.95	0.0312581
3542.59	0.0279256
3552.24	0.0232902
3561.88	0.0231881
3571.52	0.0183108
3581.16	0.0177502
3590.8	0.0166143
3600.45	0.0161858
3610.09	0.0147529
3619.73	0.0124429
3629.37	0.0112262
3639.02	0.0124949
3648.66	0.00872828
3658.3	0.0115203
3667.94	0.0100098
3677.59	0.0124038
3687.23	0.0114116
3696.87	0.012172
3706.51	0.0103812
3716.16	0.00901996
3725.8	0.00811554
3735.44	0.0095159
3745.08	0.00949402
3754.72	0.00736938
3764.37	0.0108041
3774.01	0.0102959
3783.65	0.0102751
3793.29	0.00837748
3802.94	0.0108392
3812.58	0.0112578
3822.22	0.0103137
3831.86	0.0128823
3841.51	0.0122877
3851.15	0.00828028
3860.79	0.0104925
3870.43	0.00835422
3880.07	0.0110624
3889.72	0.00999791
3899.36	0.0109133
3909	0.0103572
3918.64	0.0131923
3928.29	0.00863265
3937.93	0.00855522
3947.57	0.0119912
3957.21	0.0132282
3966.86	0.0111608
3976.5	0.0110712
3986.14	0.013735
3995.78	0.0119129
