Measurement: Infrared, Infrared Data Processed
Mineral: Analcime
Rruff sample: R050094
Ideal chemistry: NaAlSi_2_O_6_H_2_O
Locality: Springfield, Oregon, USA
Source: Rock Currier
Description: Clear colorless single crystals associated with gmelinite
Measured chemistry: (Na_0.99_[box]_0.01_)_Σ=1_(Si_2.01_Al_0.99_)O_6_·H_2_O
x	intensity
399.193	0
408.835	0.204614
418.477	0.204351
428.12	0.206561
437.762	0.20827
447.404	0.175212
457.047	0.128999
466.689	0.0984174
476.331	0.0747657
485.974	0.0618516
495.616	0.0528464
505.258	0.0447358
514.901	0.0414688
524.543	0.0399211
534.185	0.0392598
543.828	0.0397358
553.47	0.0395942
563.112	0.0397332
572.755	0.0393691
582.397	0.0401601
592.039	0.0423951
601.682	0.0459227
611.324	0.0532616
620.966	0.056319
630.609	0.0500767
640.251	0.0451677
649.893	0.0451951
659.536	0.0487673
669.178	0.053972
678.82	0.0596737
688.463	0.0692104
698.105	0.0745429
707.747	0.0783512
717.39	0.0870172
727.032	0.0956413
736.674	0.0984738
746.317	0.0902882
755.959	0.0855984
765.601	0.0877948
775.244	0.0637591
784.886	0.0376075
794.528	0.0258952
804.171	0.0204076
813.813	0.0184846
823.455	0.0182129
833.098	0.0187405
842.74	0.02041
852.382	0.02271
862.025	0.0258723
871.667	0.0303577
881.309	0.0356018
890.952	0.0431952
900.594	0.0529466
910.236	0.0672257
919.879	0.088437
929.521	0.119621
939.163	0.162185
948.806	0.217672
958.448	0.286971
968.09	0.356558
977.733	0.400017
987.375	0.400876
997.017	0.388886
1006.66	0.372447
1016.3	0.347927
1025.94	0.314892
1035.59	0.278147
1045.23	0.238978
1054.87	0.199216
1064.51	0.162782
1074.16	0.137181
1083.8	0.121296
1093.44	0.112078
1103.08	0.102806
1112.72	0.0922453
1122.37	0.0798733
1132.01	0.0676811
1141.65	0.0571485
1151.3	0.0477959
1160.94	0.038982
1170.58	0.0301169
1180.22	0.0220053
1189.86	0.0156748
1199.51	0.0109883
1209.15	0.00749742
1218.79	0.0052689
1228.43	0.0037074
1238.08	0.00234358
1247.72	0.00134656
1257.36	0.000476466
1267	-5.44541e-05
1276.64	-0.000371602
1286.29	-0.000725408
1295.93	-0.000991058
1305.57	-0.00110272
1315.21	-0.00126459
1324.86	-0.00128383
1334.5	-0.0013209
1344.14	-0.00132544
1353.78	-0.00152103
1363.43	-0.00100505
1373.07	-0.00146188
1382.71	-0.00150704
1392.35	-0.00130625
1401.99	-0.0010708
1411.64	-0.000949898
1421.28	-0.000890145
1430.92	-0.00104209
1440.57	-0.00134068
1450.21	-0.00145446
1459.85	-0.00123544
1469.49	-0.00138103
1479.13	-0.00125144
1488.78	-0.00122716
1498.42	-0.00115431
1508.06	-0.000630618
1517.7	-0.000948183
1527.35	-0.00131062
1536.99	-0.000687309
1546.63	-0.000399911
1556.27	0.000344044
1565.91	0.000947742
1575.56	0.00145638
1585.2	0.000991264
1594.84	0.00189572
1604.48	0.00373373
1614.13	0.00893418
1623.77	0.0231668
1633.41	0.0298981
1643.05	0.0173809
1652.7	0.00958767
1662.34	0.00430145
1671.98	0.00198567
1681.62	0.000267737
1691.27	-0.000749014
1700.91	-0.000253814
1710.55	-0.00184096
1720.19	-0.00193716
1729.84	-0.00286437
1739.48	-0.00354024
1749.12	-0.0037637
1758.76	-0.0031033
1768.4	-0.00279773
1778.05	-0.00315964
1787.69	-0.00348069
1797.33	-0.00325498
1806.97	-0.00348649
1816.62	-0.00389727
1826.26	-0.00423855
1835.9	-0.00406641
1845.54	-0.00456863
1855.18	-0.00503732
1864.83	-0.00517376
1874.47	-0.00595729
1884.11	-0.00633512
1893.75	-0.00666865
1903.4	-0.00707003
1913.04	-0.00708362
1922.68	-0.00903244
1932.32	-0.00900483
1941.97	-0.0100208
1951.61	-0.0116421
1961.25	-0.0146441
1970.89	-0.0151301
1980.54	-0.0137448
1990.18	-0.0146278
1999.82	-0.0141514
2009.46	-0.0149232
2019.11	-0.0166169
2028.75	-0.0158893
2038.39	-0.0136429
2048.03	-0.0119911
2057.67	-0.0107415
2067.32	-0.00931086
2076.96	-0.00859047
2086.6	-0.00873675
2096.24	-0.00820598
2105.89	-0.0080555
2115.53	-0.00775511
2125.17	-0.00903329
2134.81	-0.0108315
2144.45	-0.0102719
2154.1	-0.0122454
2163.74	-0.0095272
2173.38	-0.0105262
2183.02	-0.00973862
2192.67	-0.00689055
2202.31	-0.00674729
2211.95	-0.00718038
2221.59	-0.00740939
2231.24	-0.00737043
2240.88	-0.00724531
2250.52	-0.0072771
2260.16	-0.00579196
2269.8	-0.00602197
2279.45	-0.00409487
2289.09	-0.00407786
2298.73	-0.00528844
2308.38	-0.00494372
2318.02	-0.00450891
2327.66	-0.00462642
2337.3	-0.00415394
2346.94	-0.00509184
2356.59	-0.00445547
2366.23	-0.00464714
2375.87	-0.00564165
2385.51	-0.00546923
2395.16	-0.00445941
2404.8	-0.0062343
2414.44	-0.00453909
2424.08	-0.00504056
2433.72	-0.00508284
2443.37	-0.00520735
2453.01	-0.00465606
2462.65	-0.00533507
2472.29	-0.00565425
2481.94	-0.00465578
2491.58	-0.00463
2501.22	-0.00510447
2510.86	-0.00473267
2520.51	-0.00482539
2530.15	-0.00604865
2539.79	-0.00483229
2549.43	-0.00520755
2559.07	-0.00446616
2568.72	-0.00471755
2578.36	-0.00556122
2588	-0.00553644
2597.64	-0.00505703
2607.29	-0.00488847
2616.93	-0.00488828
2626.57	-0.00413717
2636.21	-0.00456374
2645.86	-0.00411443
2655.5	-0.00478868
2665.14	-0.00516587
2674.78	-0.00551992
2684.43	-0.00523598
2694.07	-0.00518571
2703.71	-0.0056141
2713.35	-0.00642756
2722.99	-0.00538354
2732.64	-0.00613729
2742.28	-0.00604216
2751.92	-0.00597318
2761.56	-0.00580893
2771.21	-0.00584248
2780.85	-0.00572817
2790.49	-0.00530736
2800.13	-0.00577695
2809.78	-0.00509515
2819.42	-0.00625194
2829.06	-0.00550921
2838.7	-0.00607062
2848.34	-0.00415917
2857.99	-0.00772688
2867.63	-0.00731922
2877.27	-0.00603431
2886.91	-0.0066576
2896.56	-0.00630507
2906.2	-0.00623143
2915.84	-0.00605476
2925.48	-0.00904902
2935.13	-0.0091202
2944.77	-0.00916683
2954.41	-0.00825428
2964.05	-0.00780734
2973.7	-0.00775905
2983.34	-0.00666062
2992.98	-0.007464
3002.62	-0.00655371
3012.26	-0.00710413
3021.91	-0.00710594
3031.55	-0.00546156
3041.19	-0.00688792
3050.83	-0.00572315
3060.48	-0.00535816
3070.12	-0.005875
3079.76	-0.00611468
3089.4	-0.00473378
3099.05	-0.0041969
3108.69	-0.00466978
3118.33	-0.00528079
3127.97	-0.00419166
3137.61	-0.0045625
3147.26	-0.00422328
3156.9	-0.0038083
3166.54	-0.00249255
3176.18	-0.00311935
3185.83	-0.0049632
3195.47	-0.00342789
3205.11	-0.00318866
3214.75	-0.00330182
3224.4	-0.00204617
3234.04	-0.00403523
3243.68	-0.00267859
3253.32	-0.00252297
3262.97	-0.00308571
3272.61	-0.00313366
3282.25	-0.00128088
3291.89	-0.00191221
3301.53	-0.00100462
3311.18	-0.000269078
3320.82	-0.00123678
3330.46	-5.24337e-05
3340.1	-0.000453638
3349.75	-0.000648691
3359.39	0.000222133
3369.03	3.70334e-05
3378.67	0.000365751
3388.32	0.000667009
3397.96	0.00182954
3407.6	0.0023216
3417.24	0.00149456
3426.89	0.00212179
3436.53	0.00233359
3446.17	0.00193323
3455.81	0.00322596
3465.45	0.00342954
3475.1	0.00354721
3484.74	0.00341308
3494.38	0.00399646
3504.02	0.0056117
3513.67	0.0032234
3523.31	0.00508103
3532.95	0.00632079
3542.59	0.00569998
3552.24	0.00582538
3561.88	0.00599502
3571.52	0.00354182
3581.16	0.00536219
3590.8	0.00555663
3600.45	0.00815735
3610.09	0.00748856
3619.73	0.00645086
3629.37	4.44818e-05
3639.02	-0.00127118
3648.66	-0.00987181
3658.3	-0.0101167
3667.94	-0.01217
3677.59	-0.0110087
3687.23	-0.0118823
3696.87	-0.0127722
3706.51	-0.0138046
3716.16	-0.0129516
3725.8	-0.0132207
3735.44	-0.0121622
3745.08	-0.0144664
3754.72	-0.0147137
3764.37	-0.0144919
3774.01	-0.0132183
3783.65	-0.0161495
3793.29	-0.0130446
3802.94	-0.0152563
3812.58	-0.0137944
3822.22	-0.0141841
3831.86	-0.0131293
3841.51	-0.0144586
3851.15	-0.012266
3860.79	-0.0142007
3870.43	-0.0132354
3880.07	-0.0145896
3889.72	-0.0139444
3899.36	-0.0145968
3909	-0.013811
3918.64	-0.0138365
3928.29	-0.0139052
3937.93	-0.0140167
3947.57	-0.0135457
3957.21	-0.0151448
3966.86	-0.0158636
3976.5	-0.0146316
3986.14	-0.0165205
3995.78	-0.0154695
