Measurement: Infrared, Infrared Data Processed
Mineral: Analcime
Rruff sample: R060023
Ideal chemistry: NaAlSi_2_O_6_H_2_O
Locality: Dallas, Oregon, USA
Source: Bob Downs
Description: White trapezohedral crystal associated with levyne-Na, R060021
Measured chemistry: (Na_0.98_[box]_0.02_)_Σ=1_(Si_2.02_Al_0.98_)O_6_·H_2_O
x	intensity
372.194	0
381.836	0
391.479	0
401.121	0.192545
410.763	0.203183
420.406	0.192294
430.048	0.209062
439.69	0.204183
449.333	0.168979
458.975	0.125093
468.617	0.0908089
478.26	0.0709582
487.902	0.0588502
497.544	0.0508455
507.187	0.0445086
516.829	0.0417652
526.471	0.04021
536.114	0.0373837
545.756	0.0387075
555.398	0.0375768
565.041	0.037615
574.683	0.0371607
584.325	0.0380505
593.968	0.0420526
603.61	0.0454442
613.252	0.0509235
622.895	0.0520054
632.537	0.0463897
642.179	0.0418064
651.822	0.0400194
661.464	0.0435273
671.106	0.0477041
680.749	0.0515926
690.391	0.0620646
700.033	0.069362
709.676	0.075179
719.318	0.0858056
728.96	0.0967436
738.603	0.0988417
748.245	0.0876415
757.887	0.0811104
767.53	0.0846803
777.172	0.0581539
786.814	0.0343717
796.457	0.0227986
806.099	0.0174011
815.741	0.0154279
825.384	0.0150194
835.026	0.0153553
844.668	0.0176552
854.311	0.0199812
863.953	0.02391
873.595	0.0284517
883.238	0.0319445
892.88	0.0393036
902.522	0.0478596
912.165	0.0614198
921.807	0.0812188
931.449	0.110032
941.092	0.151162
950.734	0.20343
960.376	0.266323
970.019	0.329939
979.661	0.369134
989.303	0.375462
998.946	0.368652
1008.59	0.356904
1018.23	0.334268
1027.87	0.304504
1037.52	0.27108
1047.16	0.232332
1056.8	0.1916
1066.44	0.154305
1076.08	0.127737
1085.73	0.112784
1095.37	0.105195
1105.01	0.0982883
1114.65	0.0894508
1124.3	0.07778
1133.94	0.0658772
1143.58	0.0548844
1153.22	0.0446286
1162.87	0.0357983
1172.51	0.0266875
1182.15	0.0176824
1191.79	0.0114589
1201.43	0.00627165
1211.08	0.00298478
1220.72	0.00074119
1230.36	-0.00140754
1240	-0.00293647
1249.65	-0.00337063
1259.29	-0.00453198
1268.93	-0.00472003
1278.57	-0.00481528
1288.22	-0.00565928
1297.86	-0.0053769
1307.5	-0.00597301
1317.14	-0.00652651
1326.79	-0.00657985
1336.43	-0.0061789
1346.07	-0.00726213
1355.71	-0.00685874
1365.35	-0.00718684
1375	-0.00703263
1384.64	-0.0064644
1394.28	-0.00688896
1403.92	-0.00663956
1413.57	-0.00644828
1423.21	-0.00686751
1432.85	-0.00628462
1442.49	-0.00631362
1452.13	-0.00584089
1461.78	-0.00614375
1471.42	-0.00563775
1481.06	-0.00642942
1490.7	-0.00583422
1500.35	-0.00624957
1509.99	-0.00640152
1519.63	-0.00736825
1529.27	-0.00751851
1538.92	-0.00732711
1548.56	-0.00716044
1558.2	-0.00684858
1567.84	-0.00669211
1577.49	-0.00640106
1587.13	-0.00516081
1596.77	-0.00475901
1606.41	-0.00268942
1616.06	0.00400474
1625.7	0.0174894
1635.34	0.0180928
1644.98	0.00595736
1654.62	-0.000828412
1664.27	-0.00458854
1673.91	-0.00658344
1683.55	-0.00741315
1693.19	-0.00782472
1702.84	-0.00808568
1712.48	-0.00844183
1722.12	-0.00841511
1731.76	-0.00908655
1741.4	-0.00927514
1751.05	-0.00984454
1760.69	-0.00950468
1770.33	-0.0105007
1779.97	-0.0100909
1789.62	-0.00997896
1799.26	-0.0105361
1808.9	-0.0109513
1818.54	-0.0116089
1828.19	-0.0110987
1837.83	-0.0116917
1847.47	-0.0118428
1857.11	-0.012054
1866.76	-0.0132477
1876.4	-0.0118651
1886.04	-0.0130212
1895.68	-0.0126214
1905.33	-0.013362
1914.97	-0.0136727
1924.61	-0.0149007
1934.25	-0.0157902
1943.89	-0.0171681
1953.54	-0.0159401
1963.18	-0.0156052
1972.82	-0.0185527
1982.46	-0.0148118
1992.11	-0.0219487
2001.75	-0.0198089
2011.39	-0.0199877
2021.03	-0.0191192
2030.67	-0.019984
2040.32	-0.0187879
2049.96	-0.0169037
2059.6	-0.0168616
2069.24	-0.0167736
2078.89	-0.0153701
2088.53	-0.0150097
2098.17	-0.0166644
2107.81	-0.0149526
2117.46	-0.0174558
2127.1	-0.0177242
2136.74	-0.0223516
2146.38	-0.0186173
2156.03	-0.02044
2165.67	-0.0190941
2175.31	-0.0160986
2184.95	-0.0215926
2194.59	-0.0202725
2204.24	-0.0158965
2213.88	-0.0180986
2223.52	-0.0164721
2233.16	-0.0160378
2242.81	-0.0142725
2252.45	-0.0159277
2262.09	-0.0158656
2271.73	-0.0156644
2281.38	-0.0148691
2291.02	-0.0162549
2300.66	-0.0163549
2310.3	-0.0156658
2319.95	-0.0141067
2329.59	-0.016093
2339.23	-0.0166476
2348.87	-0.0157432
2358.51	-0.0159629
2368.16	-0.0165252
2377.8	-0.015344
2387.44	-0.0159748
2397.08	-0.0168272
2406.73	-0.0154676
2416.37	-0.0157616
2426.01	-0.0160333
2435.65	-0.0164625
2445.3	-0.0142293
2454.94	-0.0154151
2464.58	-0.0160087
2474.22	-0.0163982
2483.86	-0.0156232
2493.51	-0.0169736
2503.15	-0.0176953
2512.79	-0.0185591
2522.43	-0.0158716
2532.08	-0.0169193
2541.72	-0.0167633
2551.36	-0.0157888
2561	-0.0173231
2570.65	-0.0178946
2580.29	-0.0172202
2589.93	-0.0184042
2599.57	-0.0164216
2609.22	-0.0180057
2618.86	-0.0168584
2628.5	-0.0157962
2638.14	-0.0159591
2647.78	-0.0172257
2657.43	-0.0166324
2667.07	-0.0176644
2676.71	-0.0180631
2686.35	-0.0177694
2696	-0.017082
2705.64	-0.0194628
2715.28	-0.0176864
2724.92	-0.0185393
2734.57	-0.0182967
2744.21	-0.0193543
2753.85	-0.0198366
2763.49	-0.0190826
2773.14	-0.0174524
2782.78	-0.0186084
2792.42	-0.0176099
2802.06	-0.0181435
2811.7	-0.0191968
2821.35	-0.019444
2830.99	-0.0186672
2840.63	-0.0196905
2850.27	-0.0189802
2859.92	-0.0178455
2869.56	-0.0168757
2879.2	-0.0170428
2888.84	-0.0174199
2898.49	-0.0164635
2908.13	-0.0183857
2917.77	-0.017349
2927.41	-0.0154351
2937.05	-0.017493
2946.7	-0.0184927
2956.34	-0.0159221
2965.98	-0.0164191
2975.62	-0.0178189
2985.27	-0.0176032
2994.91	-0.0183106
3004.55	-0.0180997
3014.19	-0.0199976
3023.84	-0.0190188
3033.48	-0.0175765
3043.12	-0.0186453
3052.76	-0.0167818
3062.41	-0.0173618
3072.05	-0.0177414
3081.69	-0.0178476
3091.33	-0.0164774
3100.97	-0.0154533
3110.62	-0.019266
3120.26	-0.0164369
3129.9	-0.0177044
3139.54	-0.0167643
3149.19	-0.0186775
3158.83	-0.0165089
3168.47	-0.0159972
3178.11	-0.018916
3187.76	-0.0171083
3197.4	-0.0163818
3207.04	-0.0161038
3216.68	-0.0176576
3226.32	-0.018832
3235.97	-0.0165564
3245.61	-0.0157902
3255.25	-0.0173705
3264.89	-0.0174645
3274.54	-0.0160719
3284.18	-0.0177452
3293.82	-0.0163449
3303.46	-0.0142388
3313.11	-0.0152606
3322.75	-0.0170007
3332.39	-0.0175561
3342.03	-0.0155681
3351.68	-0.0132485
3361.32	-0.0177522
3370.96	-0.0135864
3380.6	-0.0150961
3390.24	-0.0154959
3399.89	-0.0152825
3409.53	-0.0149647
3419.17	-0.0168149
3428.81	-0.0179626
3438.46	-0.0159711
3448.1	-0.0134924
3457.74	-0.0154333
3467.38	-0.0161065
3477.03	-0.0163239
3486.67	-0.015545
3496.31	-0.0135577
3505.95	-0.0124126
3515.59	-0.0145222
3525.24	-0.0136664
3534.88	-0.0126576
3544.52	-0.0121279
3554.16	-0.0151442
3563.81	-0.014954
3573.45	-0.0160866
3583.09	-0.0187414
3592.73	-0.0150537
3602.38	-0.0116558
3612.02	-0.014548
3621.66	-0.0162591
3631.3	-0.0190523
3640.95	-0.0249607
3650.59	-0.0306864
3660.23	-0.0272752
3669.87	-0.0327467
3679.51	-0.0318358
3689.16	-0.0286473
3698.8	-0.0364771
3708.44	-0.0356425
3718.08	-0.0324066
3727.73	-0.0319633
3737.37	-0.0376758
3747.01	-0.0373151
3756.65	-0.033709
3766.3	-0.0385029
3775.94	-0.0346356
3785.58	-0.0356299
3795.22	-0.0354833
3804.86	-0.036205
3814.51	-0.0371291
3824.15	-0.0341991
3833.79	-0.0385121
3843.43	-0.0364441
3853.08	-0.0309717
3862.72	-0.0369896
3872.36	-0.0366919
3882	-0.0370974
3891.65	-0.0373231
3901.29	-0.0366974
3910.93	-0.0399792
3920.57	-0.0403315
3930.22	-0.0366597
3939.86	-0.0388623
3949.5	-0.0363931
3959.14	-0.041479
3968.78	-0.0418619
3978.43	-0.0404894
3988.07	-0.0400331
3997.71	-0.0399197
