Measurement: Infrared, Infrared Data Processed
Mineral: Anapaite
Rruff sample: R050510
Ideal chemistry: Ca_2_Fe^2+^(PO_4_)_2_4H_2_O
Locality: Prats-Sampsor, Spain
Source: University of Arizona Mineral Museum
Description: Pale green tabular crystals lining fractured rock. Probe photo shows two phases. This sample is the lighter phase in the probe photo.
Measured chemistry: Ca_2.00_(Fe^2+^_0.93_Mn_0.07_)_Σ=1_(P_1.00_O_4_)_2_·4H_2_O; (lighter phase)
x	intensity
399.193	0.10068
408.835	0.0725572
418.477	0.0656177
428.12	0.0770959
437.762	0.0865619
447.404	0.086234
457.047	0.0918844
466.689	0.101776
476.331	0.122184
485.974	0.14912
495.616	0.144545
505.258	0.177176
514.901	0.260118
524.543	0.439328
534.185	0.679223
543.828	0.480375
553.47	0.288909
563.112	0.332711
572.755	0.184258
582.397	0.160471
592.039	0.230415
601.682	0.302454
611.324	0.20291
620.966	0.191576
630.609	0.241124
640.251	0.194732
649.893	0.102903
659.536	0.064399
669.178	0.050938
678.82	0.0466428
688.463	0.0461995
698.105	0.0476706
707.747	0.0508059
717.39	0.0553216
727.032	0.061258
736.674	0.072026
746.317	0.0868385
755.959	0.111738
765.601	0.155225
775.244	0.192714
784.886	0.156651
794.528	0.113278
804.171	0.100772
813.813	0.106094
823.455	0.127725
833.098	0.169559
842.74	0.219296
852.382	0.19683
862.025	0.142676
871.667	0.139068
881.309	0.168137
890.952	0.219263
900.594	0.265218
910.236	0.262763
919.879	0.280061
929.521	0.368024
939.163	0.499055
948.806	0.523384
958.448	0.598531
968.09	0.547759
977.733	0.463847
987.375	0.408106
997.017	0.413605
1006.66	0.370826
1016.3	0.292708
1025.94	0.283168
1035.59	0.276965
1045.23	0.275455
1054.87	0.257937
1064.51	0.219167
1074.16	0.191104
1083.8	0.191567
1093.44	0.193883
1103.08	0.17421
1112.72	0.139159
1122.37	0.10188
1132.01	0.0667118
1141.65	0.0385147
1151.3	0.0225796
1160.94	0.0155451
1170.58	0.0121878
1180.22	0.00997151
1189.86	0.00893239
1199.51	0.00818967
1209.15	0.00763915
1218.79	0.0074042
1228.43	0.00743231
1238.08	0.00726779
1247.72	0.00725179
1257.36	0.00736143
1267	0.00703729
1276.64	0.0071578
1286.29	0.00692079
1295.93	0.00661921
1305.57	0.00640378
1315.21	0.00655139
1324.86	0.00631841
1334.5	0.00642396
1344.14	0.0069893
1353.78	0.00703884
1363.43	0.00722891
1373.07	0.00724892
1382.71	0.00825889
1392.35	0.00889934
1401.99	0.00926299
1411.64	0.00910444
1421.28	0.00927488
1430.92	0.00975058
1440.57	0.00950694
1450.21	0.0105442
1459.85	0.0108759
1469.49	0.0110436
1479.13	0.0107544
1488.78	0.0105595
1498.42	0.0112795
1508.06	0.0116092
1517.7	0.013051
1527.35	0.0151816
1536.99	0.0186771
1546.63	0.0225698
1556.27	0.0238622
1565.91	0.0250034
1575.56	0.0287372
1585.2	0.0376076
1594.84	0.0485787
1604.48	0.0453888
1614.13	0.0405583
1623.77	0.0351773
1633.41	0.0321615
1643.05	0.0314243
1652.7	0.0309351
1662.34	0.0296958
1671.98	0.0267437
1681.62	0.0230989
1691.27	0.0199578
1700.91	0.0169639
1710.55	0.014216
1720.19	0.0129029
1729.84	0.0111839
1739.48	0.00924052
1749.12	0.00934701
1758.76	0.0110227
1768.4	0.0112037
1778.05	0.011325
1787.69	0.0116115
1797.33	0.0120291
1806.97	0.0121267
1816.62	0.012013
1826.26	0.012295
1835.9	0.01201
1845.54	0.0121938
1855.18	0.0117589
1864.83	0.0124897
1874.47	0.0132491
1884.11	0.0150607
1893.75	0.0156982
1903.4	0.0176473
1913.04	0.0200523
1922.68	0.0225799
1932.32	0.0261193
1941.97	0.0256573
1951.61	0.024984
1961.25	0.025033
1970.89	0.0239514
1980.54	0.022804
1990.18	0.0197085
1999.82	0.0168591
2009.46	0.0157789
2019.11	0.0172037
2028.75	0.01597
2038.39	0.0165167
2048.03	0.0179702
2057.67	0.0169143
2067.32	0.0180961
2076.96	0.01872
2086.6	0.0189974
2096.24	0.0182202
2105.89	0.019542
2115.53	0.0198251
2125.17	0.0192811
2134.81	0.0180076
2144.45	0.0180694
2154.1	0.0159323
2163.74	0.0180753
2173.38	0.0210451
2183.02	0.0211785
2192.67	0.0225537
2202.31	0.0238403
2211.95	0.02444
2221.59	0.0248298
2231.24	0.0265993
2240.88	0.0289632
2250.52	0.0289787
2260.16	0.0318529
2269.8	0.0342303
2279.45	0.0370383
2289.09	0.0395142
2298.73	0.0413733
2308.38	0.0428252
2318.02	0.0413912
2327.66	0.0366751
2337.3	0.0324318
2346.94	0.028348
2356.59	0.0259607
2366.23	0.0242773
2375.87	0.0251254
2385.51	0.0247063
2395.16	0.0241804
2404.8	0.0239277
2414.44	0.023641
2424.08	0.0242514
2433.72	0.0243347
2443.37	0.023833
2453.01	0.0238864
2462.65	0.0245536
2472.29	0.0244667
2481.94	0.0260275
2491.58	0.0266667
2501.22	0.0278589
2510.86	0.0274082
2520.51	0.0285713
2530.15	0.029501
2539.79	0.0302551
2549.43	0.0320453
2559.07	0.0317981
2568.72	0.0329432
2578.36	0.0337763
2588	0.0351566
2597.64	0.0359546
2607.29	0.0368883
2616.93	0.038034
2626.57	0.0389212
2636.21	0.039857
2645.86	0.0413185
2655.5	0.042391
2665.14	0.0442084
2674.78	0.0469703
2684.43	0.0494191
2694.07	0.0519531
2703.71	0.0545199
2713.35	0.0573447
2722.99	0.0596034
2732.64	0.0615765
2742.28	0.0627707
2751.92	0.0642225
2761.56	0.063833
2771.21	0.0637395
2780.85	0.0622684
2790.49	0.061525
2800.13	0.059794
2809.78	0.0584021
2819.42	0.0563094
2829.06	0.0545326
2838.7	0.0529462
2848.34	0.0510628
2857.99	0.0493114
2867.63	0.0500631
2877.27	0.049392
2886.91	0.0488917
2896.56	0.0484056
2906.2	0.0473593
2915.84	0.0460923
2925.48	0.0453481
2935.13	0.0465577
2944.77	0.049004
2954.41	0.0496248
2964.05	0.050159
2973.7	0.051453
2983.34	0.0524548
2992.98	0.0529985
3002.62	0.0526084
3012.26	0.05268
3021.91	0.0529984
3031.55	0.0529674
3041.19	0.0521907
3050.83	0.0530185
3060.48	0.0539329
3070.12	0.054627
3079.76	0.0543166
3089.4	0.0551337
3099.05	0.054629
3108.69	0.0521085
3118.33	0.0500266
3127.97	0.0458112
3137.61	0.04304
3147.26	0.0391002
3156.9	0.0373636
3166.54	0.0351277
3176.18	0.0335736
3185.83	0.0310719
3195.47	0.0294152
3205.11	0.0276136
3214.75	0.0263332
3224.4	0.0254087
3234.04	0.0240846
3243.68	0.022457
3253.32	0.0206406
3262.97	0.0194179
3272.61	0.0179352
3282.25	0.0173256
3291.89	0.0166638
3301.53	0.015903
3311.18	0.0154574
3320.82	0.0140704
3330.46	0.0137059
3340.1	0.0127406
3349.75	0.0114146
3359.39	0.0107536
3369.03	0.010182
3378.67	0.00933412
3388.32	0.00956161
3397.96	0.00888433
3407.6	0.00737882
3417.24	0.00800303
3426.89	0.00824181
3436.53	0.00683949
3446.17	0.00633132
3455.81	0.00663388
3465.45	0.00612487
3475.1	0.00602232
3484.74	0.00616944
3494.38	0.00651109
3504.02	0.0049561
3513.67	0.0048822
3523.31	0.00530562
3532.95	0.00404496
3542.59	0.00468997
3552.24	0.00487765
3561.88	0.00326955
3571.52	0.00272296
3581.16	0.00314478
3590.8	0.00322876
3600.45	0.00250649
3610.09	0.00309709
3619.73	0.00379755
3629.37	0.00244514
3639.02	0.00265104
3648.66	0.00197074
3658.3	0.00342348
3667.94	0.000995659
3677.59	0.00159811
3687.23	0.00248646
3696.87	0.00302698
3706.51	0.00242938
3716.16	0.00213649
3725.8	0.00290188
3735.44	0.00232543
3745.08	0.00187605
3754.72	0.00131742
3764.37	0.00304186
3774.01	0.00302128
3783.65	0.00191279
3793.29	0.00231534
3802.94	0.00275927
3812.58	0.00301016
3822.22	0.00270439
3831.86	0.00194964
3841.51	0.00308991
3851.15	0.00375921
3860.79	0.00334133
3870.43	0.00363834
3880.07	0.00277291
3889.72	0.00373989
3899.36	0.00197207
3909	0.00322649
3918.64	0.00319191
3928.29	0.00238656
3937.93	0.00256564
3947.57	0.00372335
3957.21	0.00258221
3966.86	0.00299208
3976.5	0.00251345
3986.14	0.00257964
3995.78	0.00294551
