Measurement: Infrared, Infrared Data Processed
Mineral: Andalusite
Rruff sample: R050258
Ideal chemistry: Al_2_SiO_5_
Locality: Bautista Canyon, near Hemet, Riverside County, California, USA
Source: Marcus Origlieri
Description: Brown fragment
Measured chemistry: Al_2.00_Si_1.00_O_5_
x	intensity
399.193	0
408.835	0.154681
418.477	0.166803
428.12	0.17291
437.762	0.174768
447.404	0.16633
457.047	0.149239
466.689	0.0946682
476.331	0.0969468
485.974	0.100497
495.616	0.0952754
505.258	0.0815108
514.901	0.12701
524.543	0.112559
534.185	0.09804
543.828	0.091396
553.47	0.0963589
563.112	0.103315
572.755	0.110822
582.397	0.121412
592.039	0.127105
601.682	0.130798
611.324	0.132686
620.966	0.129401
630.609	0.124705
640.251	0.121277
649.893	0.115892
659.536	0.109096
669.178	0.109771
678.82	0.106723
688.463	0.101077
698.105	0.097734
707.747	0.0918585
717.39	0.0850086
727.032	0.0791023
736.674	0.0687558
746.317	0.0476193
755.959	0.0330662
765.601	0.0367978
775.244	0.0494617
784.886	0.0309101
794.528	0.0285861
804.171	0.0303529
813.813	0.0376925
823.455	0.0462283
833.098	0.057975
842.74	0.0717282
852.382	0.0884498
862.025	0.106696
871.667	0.120884
881.309	0.127752
890.952	0.133719
900.594	0.133882
910.236	0.128891
919.879	0.135836
929.521	0.159547
939.163	0.15077
948.806	0.140461
958.448	0.132791
968.09	0.13702
977.733	0.126304
987.375	0.1072
997.017	0.0918936
1006.66	0.0780061
1016.3	0.0658604
1025.94	0.0554699
1035.59	0.047065
1045.23	0.0399967
1054.87	0.0344507
1064.51	0.0285273
1074.16	0.0228335
1083.8	0.0172607
1093.44	0.013508
1103.08	0.0116194
1112.72	0.0107397
1122.37	0.0107563
1132.01	0.00847645
1141.65	0.00703452
1151.3	0.00622473
1160.94	0.00560609
1170.58	0.0051378
1180.22	0.00449122
1189.86	0.00445465
1199.51	0.00399737
1209.15	0.00354851
1218.79	0.00340189
1228.43	0.00297124
1238.08	0.00319324
1247.72	0.00319534
1257.36	0.00300444
1267	0.00262825
1276.64	0.0030691
1286.29	0.00274399
1295.93	0.00267279
1305.57	0.00270371
1315.21	0.00322278
1324.86	0.00296854
1334.5	0.00277847
1344.14	0.00281844
1353.78	0.00287265
1363.43	0.00260708
1373.07	0.00271434
1382.71	0.00283514
1392.35	0.00305308
1401.99	0.00332686
1411.64	0.00380157
1421.28	0.00437851
1430.92	0.00468552
1440.57	0.00509716
1450.21	0.00562573
1459.85	0.00576021
1469.49	0.00552297
1479.13	0.00506195
1488.78	0.00451077
1498.42	0.00428058
1508.06	0.00382795
1517.7	0.00383981
1527.35	0.00387101
1536.99	0.00351088
1546.63	0.0038923
1556.27	0.00393503
1565.91	0.00452065
1575.56	0.00440727
1585.2	0.00476669
1594.84	0.0051271
1604.48	0.00505638
1614.13	0.0048905
1623.77	0.00470785
1633.41	0.00451421
1643.05	0.00433475
1652.7	0.00406178
1662.34	0.00495879
1671.98	0.00442925
1681.62	0.00438907
1691.27	0.00392774
1700.91	0.0043255
1710.55	0.0039217
1720.19	0.00349051
1729.84	0.00396521
1739.48	0.00343589
1749.12	0.00344721
1758.76	0.003684
1768.4	0.00372331
1778.05	0.00338683
1787.69	0.00408662
1797.33	0.00362705
1806.97	0.0040331
1816.62	0.00372324
1826.26	0.00404178
1835.9	0.00324427
1845.54	0.00335685
1855.18	0.00373712
1864.83	0.00274124
1874.47	0.00353946
1884.11	0.00291638
1893.75	0.00265435
1903.4	0.00264257
1913.04	0.00333665
1922.68	0.00165214
1932.32	0.000980322
1941.97	0.00058625
1951.61	-0.000751433
1961.25	0.00100111
1970.89	-0.001578
1980.54	0.00239349
1990.18	0.00167331
1999.82	0.000653128
2009.46	0.00103263
2019.11	0.00165843
2028.75	-0.000356247
2038.39	0.00372951
2048.03	0.00347036
2057.67	0.00325965
2067.32	0.00297441
2076.96	0.00444597
2086.6	0.00436318
2096.24	0.00429231
2105.89	0.00499376
2115.53	0.00475267
2125.17	0.00404118
2134.81	0.00350564
2144.45	0.00381633
2154.1	0.00108199
2163.74	0.00802116
2173.38	0.00653473
2183.02	0.00270733
2192.67	0.00637166
2202.31	0.00605102
2211.95	0.00607091
2221.59	0.00663658
2231.24	0.00601813
2240.88	0.00606711
2250.52	0.0052543
2260.16	0.00664333
2269.8	0.00649927
2279.45	0.00667715
2289.09	0.0070144
2298.73	0.00681803
2308.38	0.00777953
2318.02	0.00703406
2327.66	0.00630196
2337.3	0.00625065
2346.94	0.00603992
2356.59	0.00540358
2366.23	0.0056498
2375.87	0.00645777
2385.51	0.00645156
2395.16	0.00583345
2404.8	0.00670817
2414.44	0.0065839
2424.08	0.00606004
2433.72	0.00710563
2443.37	0.00764639
2453.01	0.00713552
2462.65	0.00591971
2472.29	0.00585305
2481.94	0.0075748
2491.58	0.00587967
2501.22	0.00577544
2510.86	0.00637467
2520.51	0.00690275
2530.15	0.00625533
2539.79	0.00706115
2549.43	0.00726726
2559.07	0.00698956
2568.72	0.00734687
2578.36	0.00700388
2588	0.0079071
2597.64	0.00676709
2607.29	0.00648819
2616.93	0.00692312
2626.57	0.00702204
2636.21	0.00732511
2645.86	0.00725033
2655.5	0.00663046
2665.14	0.0064616
2674.78	0.00695189
2684.43	0.00687374
2694.07	0.00621853
2703.71	0.00684191
2713.35	0.006538
2722.99	0.00753559
2732.64	0.00608878
2742.28	0.00592782
2751.92	0.00693477
2761.56	0.00740685
2771.21	0.00681904
2780.85	0.00803212
2790.49	0.00702304
2800.13	0.00741755
2809.78	0.00718574
2819.42	0.00754322
2829.06	0.00789075
2838.7	0.00763137
2848.34	0.00732965
2857.99	0.0063362
2867.63	0.00738931
2877.27	0.00757847
2886.91	0.00726083
2896.56	0.00713242
2906.2	0.00717362
2915.84	0.00811708
2925.48	0.0067628
2935.13	0.00711331
2944.77	0.00769098
2954.41	0.00636543
2964.05	0.00657694
2973.7	0.00687336
2983.34	0.00762104
2992.98	0.00686798
3002.62	0.00772211
3012.26	0.00754802
3021.91	0.00617009
3031.55	0.00672284
3041.19	0.00648475
3050.83	0.00620389
3060.48	0.0057653
3070.12	0.0076065
3079.76	0.00675012
3089.4	0.00762174
3099.05	0.00662794
3108.69	0.00690043
3118.33	0.00526139
3127.97	0.00585395
3137.61	0.00722887
3147.26	0.00841578
3156.9	0.00833501
3166.54	0.0075589
3176.18	0.00621929
3185.83	0.00760833
3195.47	0.00765957
3205.11	0.00723583
3214.75	0.00723009
3224.4	0.00614652
3234.04	0.00695855
3243.68	0.00540322
3253.32	0.00663423
3262.97	0.00816109
3272.61	0.00758709
3282.25	0.00868128
3291.89	0.00589115
3301.53	0.00867016
3311.18	0.00705545
3320.82	0.00749915
3330.46	0.00709214
3340.1	0.00785538
3349.75	0.00672449
3359.39	0.00709231
3369.03	0.00781236
3378.67	0.00957151
3388.32	0.00773747
3397.96	0.00801508
3407.6	0.00607248
3417.24	0.00648168
3426.89	0.00596344
3436.53	0.00786217
3446.17	0.00868651
3455.81	0.00794942
3465.45	0.00794949
3475.1	0.00764334
3484.74	0.00672492
3494.38	0.0072987
3504.02	0.00563752
3513.67	0.00727449
3523.31	0.00628025
3532.95	0.00742696
3542.59	0.00696961
3552.24	0.00689565
3561.88	0.00794177
3571.52	0.00598475
3581.16	0.00620596
3590.8	0.00831155
3600.45	0.00609149
3610.09	0.00731079
3619.73	0.00601485
3629.37	0.00681777
3639.02	0.00505864
3648.66	0.00785613
3658.3	0.00751024
3667.94	0.00626506
3677.59	0.00572933
3687.23	0.00633277
3696.87	0.00468928
3706.51	0.00272137
3716.16	0.00635773
3725.8	0.00367293
3735.44	0.00508372
3745.08	0.00518538
3754.72	0.00555903
3764.37	0.00321541
3774.01	0.00466206
3783.65	0.00435933
3793.29	0.00422654
3802.94	0.00581223
3812.58	0.00581367
3822.22	0.00632994
3831.86	0.00452627
3841.51	0.0070698
3851.15	0.00260977
3860.79	0.00391621
3870.43	0.00660455
3880.07	0.00303233
3889.72	0.0045944
3899.36	0.00201322
3909	0.00365675
3918.64	0.00438085
3928.29	0.00164765
3937.93	0.00418742
3947.57	0.00506659
3957.21	0.00647977
3966.86	0.0062006
3976.5	0.00487358
3986.14	0.00915664
3995.78	0.00597657
