Measurement: Infrared, Infrared Data Processed
Mineral: Andalusite
Rruff sample: R050561
Ideal chemistry: Al_2_SiO_5_
Locality: Cargo Muchacho Mountain, Imperial County, California
Source: Dave Bunk Minerals
Description: Brown coarsely crystalline massive
Measured chemistry: (Al_1.98_Fe^3+^_0.02_)_Î£=2_Si_1.00_O_5_
x	intensity
399.193	0.196056
408.835	0.214964
418.477	0.242801
428.12	0.255733
437.762	0.241847
447.404	0.222943
457.047	0.183406
466.689	0.126847
476.331	0.129182
485.974	0.130195
495.616	0.118166
505.258	0.105509
514.901	0.176522
524.543	0.141443
534.185	0.124172
543.828	0.114604
553.47	0.123203
563.112	0.127955
572.755	0.140452
582.397	0.158011
592.039	0.168218
601.682	0.173029
611.324	0.172454
620.966	0.167914
630.609	0.160067
640.251	0.155344
649.893	0.148137
659.536	0.13896
669.178	0.141369
678.82	0.136768
688.463	0.130853
698.105	0.124857
707.747	0.114997
717.39	0.104969
727.032	0.0965502
736.674	0.0825701
746.317	0.0562774
755.959	0.0410176
765.601	0.0494797
775.244	0.0669189
784.886	0.0419933
794.528	0.0401908
804.171	0.0402926
813.813	0.0437749
823.455	0.0552137
833.098	0.0716984
842.74	0.092901
852.382	0.120319
862.025	0.150669
871.667	0.170514
881.309	0.182659
890.952	0.191776
900.594	0.189721
910.236	0.181733
919.879	0.195666
929.521	0.222697
939.163	0.205733
948.806	0.189236
958.448	0.17875
968.09	0.184785
977.733	0.161319
987.375	0.137502
997.017	0.120491
1006.66	0.106743
1016.3	0.0928563
1025.94	0.0813469
1035.59	0.072246
1045.23	0.0612045
1054.87	0.0508333
1064.51	0.0411931
1074.16	0.0335991
1083.8	0.0303423
1093.44	0.0282847
1103.08	0.0266879
1112.72	0.0248178
1122.37	0.0209298
1132.01	0.0178818
1141.65	0.0149094
1151.3	0.0120404
1160.94	0.0114275
1170.58	0.0099321
1180.22	0.00820506
1189.86	0.00696962
1199.51	0.00533896
1209.15	0.00361348
1218.79	0.00202891
1228.43	0.00069998
1238.08	0.000417565
1247.72	-0.000616141
1257.36	-0.000363042
1267	-0.000260682
1276.64	-0.000206853
1286.29	-0.000112207
1295.93	-0.000236031
1305.57	-0.000354266
1315.21	-0.000183697
1324.86	-0.000112411
1334.5	-0.000636248
1344.14	-0.000407726
1353.78	-0.000593195
1363.43	-0.000939047
1373.07	-0.0012933
1382.71	-0.00146095
1392.35	-0.00147307
1401.99	-0.00105141
1411.64	-0.000842135
1421.28	-0.000925714
1430.92	-0.000677389
1440.57	-0.000610668
1450.21	-0.00182144
1459.85	-0.00256464
1469.49	-0.00160879
1479.13	-6.87079e-05
1488.78	0.000344656
1498.42	0.000724131
1508.06	0.00104186
1517.7	0.000890441
1527.35	0.000937501
1536.99	0.000888497
1546.63	0.0012104
1556.27	0.00089128
1565.91	0.000745842
1575.56	0.000752421
1585.2	0.00069209
1594.84	0.000509864
1604.48	0.000699072
1614.13	5.43404e-05
1623.77	0.000380644
1633.41	0.000727279
1643.05	0.000667922
1652.7	0.000503316
1662.34	0.000462545
1671.98	0.000147322
1681.62	-0.000138003
1691.27	0.000337317
1700.91	-9.94087e-05
1710.55	-0.00163849
1720.19	-0.00190713
1729.84	-0.00313599
1739.48	-0.00512022
1749.12	-0.00302573
1758.76	0.000123902
1768.4	0.000874374
1778.05	0.00124043
1787.69	0.00169848
1797.33	0.00133149
1806.97	0.00157304
1816.62	0.0019624
1826.26	0.00160372
1835.9	0.00157805
1845.54	0.00132628
1855.18	0.00203772
1864.83	0.00079401
1874.47	0.00144338
1884.11	0.00116355
1893.75	0.00102072
1903.4	0.000366439
1913.04	0.00140304
1922.68	0.000720637
1932.32	-0.00128951
1941.97	-0.00139282
1951.61	0.000106121
1961.25	0.000462098
1970.89	-0.00172495
1980.54	0.00119596
1990.18	0.000840452
1999.82	0.00123435
2009.46	0.00250046
2019.11	0.000170213
2028.75	0.00329836
2038.39	0.00152096
2048.03	0.00198323
2057.67	0.00221987
2067.32	0.00115721
2076.96	0.00251377
2086.6	0.00251262
2096.24	0.00193407
2105.89	0.00291292
2115.53	0.00246578
2125.17	-0.00054401
2134.81	0.000632162
2144.45	0.000431614
2154.1	-0.00212887
2163.74	0.00700562
2173.38	0.0053106
2183.02	0.00474303
2192.67	0.00538607
2202.31	0.00551822
2211.95	0.00317551
2221.59	0.0060622
2231.24	0.00527615
2240.88	0.00636598
2250.52	0.00558368
2260.16	0.00672497
2269.8	0.00596817
2279.45	0.00734578
2289.09	0.0077969
2298.73	0.00538988
2308.38	0.00595778
2318.02	0.00613597
2327.66	0.00589615
2337.3	0.00523772
2346.94	0.00546086
2356.59	0.00550285
2366.23	0.00534227
2375.87	0.00498593
2385.51	0.00515939
2395.16	0.00671367
2404.8	0.00634685
2414.44	0.00578088
2424.08	0.00561766
2433.72	0.00633387
2443.37	0.00783619
2453.01	0.00667159
2462.65	0.00558113
2472.29	0.00597467
2481.94	0.00493949
2491.58	0.00730323
2501.22	0.00616851
2510.86	0.00614091
2520.51	0.00639515
2530.15	0.00664411
2539.79	0.0054161
2549.43	0.00736166
2559.07	0.00785446
2568.72	0.00753499
2578.36	0.00649553
2588	0.00649309
2597.64	0.00589537
2607.29	0.00594521
2616.93	0.00634417
2626.57	0.00747568
2636.21	0.00580414
2645.86	0.00619471
2655.5	0.00529879
2665.14	0.00615925
2674.78	0.00593538
2684.43	0.00589634
2694.07	0.00544077
2703.71	0.00556923
2713.35	0.00611384
2722.99	0.00678115
2732.64	0.00712302
2742.28	0.00522185
2751.92	0.00786612
2761.56	0.00673887
2771.21	0.00756499
2780.85	0.00735332
2790.49	0.00705617
2800.13	0.00545168
2809.78	0.00782253
2819.42	0.00608119
2829.06	0.00735868
2838.7	0.00682556
2848.34	0.00709521
2857.99	0.0075922
2867.63	0.0051029
2877.27	0.00577701
2886.91	0.00578422
2896.56	0.00668747
2906.2	0.00569847
2915.84	0.00947771
2925.48	0.00801483
2935.13	0.00810743
2944.77	0.00866499
2954.41	0.00908148
2964.05	0.0101939
2973.7	0.00772362
2983.34	0.00799384
2992.98	0.00825758
3002.62	0.0121209
3012.26	0.0110425
3021.91	0.0110908
3031.55	0.00797282
3041.19	0.0104397
3050.83	0.00922049
3060.48	0.011442
3070.12	0.00881311
3079.76	0.00949254
3089.4	0.010418
3099.05	0.0122889
3108.69	0.00829387
3118.33	0.00791265
3127.97	0.0119008
3137.61	0.0098384
3147.26	0.00838833
3156.9	0.0103935
3166.54	0.0106712
3176.18	0.0100871
3185.83	0.0103801
3195.47	0.00771158
3205.11	0.00732964
3214.75	0.00869898
3224.4	0.00995945
3234.04	0.00745234
3243.68	0.00788845
3253.32	0.00969807
3262.97	0.00829091
3272.61	0.0101736
3282.25	0.0108894
3291.89	0.0110416
3301.53	0.0104883
3311.18	0.00909348
3320.82	0.0103959
3330.46	0.0124572
3340.1	0.00870379
3349.75	0.00947241
3359.39	0.00752009
3369.03	0.0100116
3378.67	0.011998
3388.32	0.0113012
3397.96	0.0108108
3407.6	0.00898508
3417.24	0.00827923
3426.89	0.0112737
3436.53	0.0103564
3446.17	0.010868
3455.81	0.0106438
3465.45	0.0128348
3475.1	0.0121798
3484.74	0.012531
3494.38	0.0137742
3504.02	0.0146392
3513.67	0.0137238
3523.31	0.0132664
3532.95	0.014563
3542.59	0.0102083
3552.24	0.00968953
3561.88	0.0147192
3571.52	0.0117855
3581.16	0.0129596
3590.8	0.0147061
3600.45	0.0150682
3610.09	0.0148651
3619.73	0.0132579
3629.37	0.0153332
3639.02	0.0153589
3648.66	0.0170376
3658.3	0.0134923
3667.94	0.0144907
3677.59	0.0129548
3687.23	0.0172093
3696.87	0.0157752
3706.51	0.0144897
3716.16	0.0148837
3725.8	0.010378
3735.44	0.0134505
3745.08	0.0146007
3754.72	0.0142754
3764.37	0.0138014
3774.01	0.0107362
3783.65	0.0136566
3793.29	0.0116151
3802.94	0.0113274
3812.58	0.010322
3822.22	0.0138887
3831.86	0.0142127
3841.51	0.00931928
3851.15	0.0166739
3860.79	0.0107643
3870.43	0.0140808
3880.07	0.0105877
3889.72	0.011762
3899.36	0.0140353
3909	0.017517
3918.64	0.014187
3928.29	0.01418
3937.93	0.0134153
3947.57	0.0117423
3957.21	0.0163152
3966.86	0.0152978
3976.5	0.0142016
3986.14	0.0139435
3995.78	0.0172654
