Measurement: Infrared, Infrared Data Processed
Mineral: Andalusite
Rruff sample: R050449
Ideal chemistry: Al_2_SiO_5_
Locality: Itinga, Minas Gerais, Brazil
Source: Marcus Origlieri
Description: Green fragment
Measured chemistry: Al_2.00_Fe^3+^_0.01_Si_0.99_O_5_
x	intensity
399.193	0.649886
408.835	0.737004
418.477	0.769754
428.12	0.755054
437.762	0.685395
447.404	0.594605
457.047	0.454514
466.689	0.297235
476.331	0.336249
485.974	0.341039
495.616	0.307603
505.258	0.257375
514.901	0.458968
524.543	0.350553
534.185	0.290043
543.828	0.253983
553.47	0.282984
563.112	0.31788
572.755	0.352202
582.397	0.398332
592.039	0.421959
601.682	0.420533
611.324	0.408175
620.966	0.380643
630.609	0.350784
640.251	0.328499
649.893	0.304731
659.536	0.282491
669.178	0.28668
678.82	0.269166
688.463	0.252261
698.105	0.235804
707.747	0.213413
717.39	0.188866
727.032	0.168792
736.674	0.147426
746.317	0.0978962
755.959	0.0684747
765.601	0.0758408
775.244	0.108632
784.886	0.0659722
794.528	0.0581169
804.171	0.0592968
813.813	0.0694698
823.455	0.0878141
833.098	0.114529
842.74	0.153205
852.382	0.203485
862.025	0.257387
871.667	0.291981
881.309	0.305533
890.952	0.30706
900.594	0.291378
910.236	0.269973
919.879	0.291381
929.521	0.339753
939.163	0.303185
948.806	0.274056
958.448	0.25242
968.09	0.250249
977.733	0.209977
987.375	0.170717
997.017	0.142915
1006.66	0.120275
1016.3	0.10187
1025.94	0.0858631
1035.59	0.0708632
1045.23	0.0565102
1054.87	0.0442849
1064.51	0.0344863
1074.16	0.0267999
1083.8	0.0212219
1093.44	0.017688
1103.08	0.0160362
1112.72	0.0144136
1122.37	0.0130175
1132.01	0.0111986
1141.65	0.00962305
1151.3	0.00831742
1160.94	0.00722915
1170.58	0.00632396
1180.22	0.00580279
1189.86	0.0049875
1199.51	0.00418836
1209.15	0.00368699
1218.79	0.00335589
1228.43	0.00288924
1238.08	0.00239409
1247.72	0.00224119
1257.36	0.0024598
1267	0.00279145
1276.64	0.00294401
1286.29	0.00287196
1295.93	0.00268685
1305.57	0.00259268
1315.21	0.00253705
1324.86	0.00266241
1334.5	0.0024726
1344.14	0.00234449
1353.78	0.00192654
1363.43	0.00152262
1373.07	0.00132034
1382.71	0.00134148
1392.35	0.00151035
1401.99	0.00123248
1411.64	0.00146467
1421.28	0.00134238
1430.92	0.00146437
1440.57	0.00136146
1450.21	0.00122577
1459.85	0.00101253
1469.49	0.000985065
1479.13	0.00160699
1488.78	0.00147691
1498.42	0.00180042
1508.06	0.00173265
1517.7	0.00186827
1527.35	0.00172098
1536.99	0.00162548
1546.63	0.00182501
1556.27	0.00160725
1565.91	0.0017917
1575.56	0.00194228
1585.2	0.00179942
1594.84	0.00190387
1604.48	0.0021603
1614.13	0.00204154
1623.77	0.0019943
1633.41	0.00189519
1643.05	0.00187512
1652.7	0.0020202
1662.34	0.00174722
1671.98	0.00161421
1681.62	0.00117304
1691.27	0.00148947
1700.91	0.000977393
1710.55	0.000342575
1720.19	0.000528014
1729.84	-0.000171965
1739.48	-0.00173194
1749.12	-0.000983034
1758.76	7.35638e-05
1768.4	0.000643277
1778.05	0.000493679
1787.69	0.000586471
1797.33	0.000727006
1806.97	0.000813672
1816.62	0.000814569
1826.26	0.000349207
1835.9	0.000380711
1845.54	0.000521047
1855.18	5.29514e-05
1864.83	0.000658043
1874.47	-0.000162956
1884.11	-0.000525321
1893.75	-0.000733763
1903.4	-0.000385079
1913.04	-0.000905106
1922.68	-0.00145664
1932.32	-0.00211357
1941.97	-0.00277247
1951.61	-0.00234103
1961.25	-0.00407408
1970.89	-0.00488065
1980.54	-0.00303933
1990.18	-0.0022903
1999.82	-0.00333871
2009.46	-0.00447055
2019.11	-0.00397497
2028.75	-0.000908678
2038.39	-0.00166309
2048.03	-4.95326e-05
2057.67	-0.00120183
2067.32	-0.000256713
2076.96	0.000963214
2086.6	5.24544e-05
2096.24	-0.000276217
2105.89	0.000423228
2115.53	0.000103954
2125.17	-0.000554939
2134.81	-0.00217486
2144.45	-0.00189243
2154.1	-0.00205751
2163.74	-0.000468329
2173.38	-0.00087743
2183.02	0.00157014
2192.67	0.000164807
2202.31	0.00175491
2211.95	0.00178921
2221.59	0.00161447
2231.24	0.000834852
2240.88	0.00143116
2250.52	0.00186184
2260.16	0.0020728
2269.8	0.0028336
2279.45	0.00248979
2289.09	0.00225628
2298.73	0.00231161
2308.38	0.00249142
2318.02	0.00254788
2327.66	0.00245373
2337.3	0.00264021
2346.94	0.00193329
2356.59	0.00205735
2366.23	0.00198046
2375.87	0.00186331
2385.51	0.00143309
2395.16	0.00181306
2404.8	0.00173179
2414.44	0.00178801
2424.08	0.0019734
2433.72	0.00164377
2443.37	0.00215271
2453.01	0.00247436
2462.65	0.00178242
2472.29	0.00160682
2481.94	0.00262818
2491.58	0.00204637
2501.22	0.00179573
2510.86	0.00171708
2520.51	0.00166566
2530.15	0.00216973
2539.79	0.00215701
2549.43	0.00161823
2559.07	0.00176752
2568.72	0.00168059
2578.36	0.00242501
2588	0.00239656
2597.64	0.00198994
2607.29	0.00225398
2616.93	0.00355094
2626.57	0.00267008
2636.21	0.00238776
2645.86	0.00278068
2655.5	0.00271942
2665.14	0.00198069
2674.78	0.00207876
2684.43	0.00207809
2694.07	0.00208346
2703.71	0.00212652
2713.35	0.00235893
2722.99	0.00284467
2732.64	0.00236487
2742.28	0.00271706
2751.92	0.00243168
2761.56	0.00231657
2771.21	0.0024542
2780.85	0.00270428
2790.49	0.00246927
2800.13	0.0024346
2809.78	0.00247679
2819.42	0.00201598
2829.06	0.00208859
2838.7	0.00254738
2848.34	0.00221669
2857.99	0.00224669
2867.63	0.00242152
2877.27	0.00213308
2886.91	0.00249169
2896.56	0.00252771
2906.2	0.00232004
2915.84	0.00267787
2925.48	0.00259467
2935.13	0.0028855
2944.77	0.00264699
2954.41	0.00215599
2964.05	0.00365741
2973.7	0.00222817
2983.34	0.00326989
2992.98	0.00289254
3002.62	0.00294287
3012.26	0.00321346
3021.91	0.00320134
3031.55	0.00256361
3041.19	0.00290811
3050.83	0.0024314
3060.48	0.00312824
3070.12	0.00256739
3079.76	0.00256043
3089.4	0.00312498
3099.05	0.00312662
3108.69	0.00344642
3118.33	0.00294571
3127.97	0.00304124
3137.61	0.00241592
3147.26	0.00285438
3156.9	0.0029726
3166.54	0.00324047
3176.18	0.00246237
3185.83	0.00342014
3195.47	0.00270275
3205.11	0.00335242
3214.75	0.00260568
3224.4	0.00381045
3234.04	0.00314978
3243.68	0.00335098
3253.32	0.00263058
3262.97	0.00355732
3272.61	0.00243334
3282.25	0.0036655
3291.89	0.00350985
3301.53	0.00309365
3311.18	0.00322405
3320.82	0.00332344
3330.46	0.00319014
3340.1	0.00351927
3349.75	0.00352097
3359.39	0.0033768
3369.03	0.00344492
3378.67	0.00321627
3388.32	0.00348313
3397.96	0.00320893
3407.6	0.00421432
3417.24	0.00334207
3426.89	0.00361676
3436.53	0.00310587
3446.17	0.00253735
3455.81	0.00301357
3465.45	0.00338287
3475.1	0.00348861
3484.74	0.00418846
3494.38	0.00412728
3504.02	0.00256114
3513.67	0.00475114
3523.31	0.00337322
3532.95	0.00350771
3542.59	0.00353885
3552.24	0.00220173
3561.88	0.00239753
3571.52	0.00274576
3581.16	0.00326381
3590.8	0.00202074
3600.45	0.00183546
3610.09	0.00319888
3619.73	0.00304717
3629.37	0.00226085
3639.02	0.0019297
3648.66	0.00238656
3658.3	0.00173109
3667.94	0.00165146
3677.59	0.00163157
3687.23	0.00298611
3696.87	0.00217828
3706.51	0.00130692
3716.16	0.00150341
3725.8	0.00309752
3735.44	0.00196212
3745.08	0.00217306
3754.72	0.0014651
3764.37	0.00258568
3774.01	0.00278631
3783.65	0.0011853
3793.29	0.00136637
3802.94	0.00222148
3812.58	0.00239753
3822.22	0.00159591
3831.86	0.0028199
3841.51	0.00259064
3851.15	0.00208562
3860.79	0.00177906
3870.43	0.00258231
3880.07	0.00153283
3889.72	0.00271309
3899.36	0.00185026
3909	0.00178917
3918.64	0.00149183
3928.29	0.00212547
3937.93	0.00353621
3947.57	0.0028915
3957.21	0.00171472
3966.86	0.0021344
3976.5	0.00103661
3986.14	0.00354539
3995.78	0.00165601
