Measurement: Infrared, Infrared Data Processed
Mineral: Andradite
Rruff sample: R040001
Ideal chemistry: Ca_3_Fe^3+^_2_(SiO_4_)_3_
Locality: Stanley Butte, Graham County, Arizona, USA
Source: University of Arizona Mineral Museum
Description: Brownish-orange dodecahedra
Measured chemistry: Ca_3.00_(Fe_1.96_Al_0.04_)_Î£=2_(SiO_4_)_3_ ; trace amounts of Mn
x	intensity
374.123	0.288823
383.765	0.245444
393.407	0.191011
403.05	0.147491
412.692	0.101595
422.334	0.113326
431.976	0.203085
441.619	0.14032
451.261	0.0866999
460.904	0.0645654
470.546	0.092016
480.188	0.122236
489.83	0.074388
499.473	0.139627
509.115	0.171031
518.758	0.105663
528.4	0.0538235
538.042	0.0309544
547.684	0.0231649
557.327	0.020459
566.969	0.0206364
576.611	0.0237019
586.254	0.037687
595.896	0.0317946
605.538	0.0275644
615.181	0.0280734
624.823	0.0308448
634.466	0.0348518
644.108	0.0410751
653.75	0.049595
663.393	0.0597934
673.035	0.0722411
682.677	0.086476
692.319	0.102596
701.962	0.120183
711.604	0.138379
721.246	0.157269
730.889	0.175448
740.531	0.193825
750.173	0.211591
759.816	0.229647
769.458	0.245324
779.101	0.259284
788.743	0.272066
798.385	0.277684
808.028	0.274145
817.67	0.25484
827.312	0.256924
836.955	0.231297
846.597	0.186657
856.239	0.140222
865.881	0.151352
875.524	0.225531
885.166	0.242265
894.808	0.211467
904.451	0.176617
914.093	0.147851
923.736	0.122781
933.378	0.100254
943.02	0.0763819
952.663	0.0560731
962.305	0.0378814
971.947	0.0241066
981.59	0.017043
991.232	0.013226
1000.87	0.0107884
1010.52	0.00963317
1020.16	0.00913002
1029.8	0.00849702
1039.44	0.00786903
1049.09	0.00722741
1058.73	0.00647024
1068.37	0.00617173
1078.01	0.0058652
1087.65	0.00558668
1097.3	0.00524503
1106.94	0.00507441
1116.58	0.00479896
1126.22	0.00473723
1135.87	0.00470187
1145.51	0.00483337
1155.15	0.00488078
1164.79	0.00493512
1174.44	0.0050431
1184.08	0.00507067
1193.72	0.00479107
1203.36	0.00476937
1213.01	0.00480215
1222.65	0.00514449
1232.29	0.00549729
1241.93	0.00535787
1251.58	0.00562112
1261.22	0.00587414
1270.86	0.00606174
1280.5	0.00648514
1290.14	0.00653575
1299.79	0.00696917
1309.43	0.00732895
1319.07	0.00784811
1328.71	0.0080723
1338.36	0.00866645
1348	0.00934414
1357.64	0.0103187
1367.28	0.0102209
1376.92	0.0103708
1386.57	0.0107667
1396.21	0.010826
1405.85	0.0111966
1415.49	0.0114786
1425.14	0.0119804
1434.78	0.0122859
1444.42	0.0122565
1454.06	0.0122404
1463.71	0.012165
1473.35	0.0124249
1482.99	0.0117397
1492.63	0.0117664
1502.28	0.0119586
1511.92	0.0123987
1521.56	0.0132816
1531.2	0.0138958
1540.85	0.0157422
1550.49	0.0154958
1560.13	0.0172282
1569.77	0.0173363
1579.41	0.0182229
1589.06	0.0189104
1598.7	0.0196399
1608.34	0.0202112
1617.98	0.0205497
1627.63	0.020143
1637.27	0.0198791
1646.91	0.0196934
1656.55	0.0193789
1666.19	0.0186253
1675.84	0.0181402
1685.48	0.0184418
1695.12	0.0181435
1704.77	0.0175169
1714.41	0.0175344
1724.05	0.0172227
1733.69	0.0179396
1743.33	0.0166008
1752.98	0.0168113
1762.62	0.0168804
1772.26	0.0173601
1781.9	0.0172914
1791.55	0.0177963
1801.19	0.0181856
1810.83	0.0180443
1820.47	0.0180899
1830.12	0.0181719
1839.76	0.01828
1849.4	0.0184021
1859.04	0.0182383
1868.68	0.0188093
1878.33	0.0190571
1887.97	0.0193735
1897.61	0.0199489
1907.25	0.0201074
1916.9	0.0207219
1926.54	0.0201544
1936.18	0.0219748
1945.82	0.0219904
1955.46	0.0217199
1965.11	0.0235439
1974.75	0.0237993
1984.39	0.0254175
1994.04	0.0254739
2003.68	0.02413
2013.32	0.0242992
2022.96	0.0247778
2032.6	0.0253933
2042.25	0.0260279
2051.89	0.0252642
2061.53	0.0236866
2071.17	0.0246847
2080.82	0.0249663
2090.46	0.024361
2100.1	0.0248673
2109.74	0.0257245
2119.39	0.0243806
2129.03	0.023954
2138.67	0.0254476
2148.31	0.0253032
2157.95	0.0273168
2167.6	0.0296899
2177.24	0.0284547
2186.88	0.0284257
2196.52	0.0283919
2206.17	0.0280474
2215.81	0.0291147
2225.45	0.029262
2235.09	0.0288209
2244.74	0.0284152
2254.38	0.0284012
2264.02	0.0283927
2273.66	0.0281605
2283.3	0.0293476
2292.95	0.0291837
2302.59	0.0282835
2312.23	0.0289399
2321.87	0.0301917
2331.52	0.0296017
2341.16	0.0295284
2350.8	0.0291914
2360.44	0.0302883
2370.09	0.0293837
2379.73	0.0285765
2389.37	0.0290028
2399.01	0.0291897
2408.66	0.0298537
2418.3	0.0290222
2427.94	0.0302028
2437.58	0.0296916
2447.22	0.0301367
2456.87	0.0300523
2466.51	0.0299616
2476.15	0.0303576
2485.79	0.0295058
2495.44	0.0303458
2505.08	0.0310081
2514.72	0.0299727
2524.36	0.0307734
2534.01	0.0312629
2543.65	0.0309172
2553.29	0.0312631
2562.93	0.031688
2572.57	0.0320556
2582.22	0.0318115
2591.86	0.0316786
2601.5	0.0319431
2611.14	0.0319695
2620.79	0.0320725
2630.43	0.0325937
2640.07	0.0323544
2649.71	0.0327174
2659.36	0.0321835
2669	0.0321584
2678.64	0.032325
2688.28	0.032241
2697.93	0.0327773
2707.57	0.0325752
2717.21	0.0325715
2726.85	0.0326571
2736.49	0.0330561
2746.14	0.0333112
2755.78	0.0333983
2765.42	0.033196
2775.06	0.0334886
2784.71	0.0336539
2794.35	0.0340524
2803.99	0.0343256
2813.63	0.0341936
2823.28	0.0340479
2832.92	0.0348937
2842.56	0.0353212
2852.2	0.0351592
2861.84	0.0348407
2871.49	0.0350866
2881.13	0.0357637
2890.77	0.0360589
2900.41	0.0357714
2910.06	0.0361795
2919.7	0.036868
2929.34	0.0362535
2938.98	0.0355583
2948.62	0.0357338
2958.27	0.0369055
2967.91	0.0359577
2977.55	0.0362108
2987.2	0.03568
2996.84	0.0354268
3006.48	0.0362091
3016.12	0.0370639
3025.76	0.0356019
3035.41	0.0364895
3045.05	0.0360547
3054.69	0.0365178
3064.33	0.036569
3073.98	0.0366619
3083.62	0.0371199
3093.26	0.0365246
3102.9	0.0374894
3112.55	0.0372147
3122.19	0.0376301
3131.83	0.0379594
3141.47	0.0380645
3151.11	0.0373734
3160.76	0.0370893
3170.4	0.0379574
3180.04	0.0380708
3189.68	0.038092
3199.33	0.0380156
3208.97	0.0381795
3218.61	0.0385737
3228.25	0.0385358
3237.9	0.0382985
3247.54	0.0385427
3257.18	0.0390768
3266.82	0.038121
3276.47	0.0386739
3286.11	0.0388194
3295.75	0.0386086
3305.39	0.0387003
3315.03	0.0385958
3324.68	0.0386601
3334.32	0.0382852
3343.96	0.0383495
3353.6	0.039135
3363.25	0.0390149
3372.89	0.0392891
3382.53	0.038694
3392.17	0.0387376
3401.82	0.0386865
3411.46	0.0385951
3421.1	0.0381919
3430.74	0.0388792
3440.39	0.0383822
3450.03	0.0392622
3459.67	0.0387259
3469.31	0.0390191
3478.95	0.0391715
3488.6	0.0384441
3498.24	0.0392465
3507.88	0.0381976
3517.52	0.0389605
3527.17	0.0386084
3536.81	0.0393436
3546.45	0.0401315
3556.09	0.0397783
3565.74	0.0398834
3575.38	0.0396636
3585.02	0.0401246
3594.66	0.0388433
3604.3	0.0397745
3613.95	0.0397805
3623.59	0.0384036
3633.23	0.0385728
3642.87	0.0377614
3652.52	0.0375428
3662.16	0.037084
3671.8	0.0389138
3681.44	0.0373814
3691.09	0.0386888
3700.73	0.0376892
3710.37	0.0388392
3720.01	0.037562
3729.66	0.0380518
3739.3	0.0384125
3748.94	0.0398985
3758.58	0.0379029
3768.22	0.0377747
3777.87	0.0374431
3787.51	0.0368693
3797.15	0.037649
3806.79	0.038599
3816.44	0.0394328
3826.08	0.0372894
3835.72	0.0395273
3845.36	0.0379992
3855.01	0.0386456
3864.65	0.0393256
3874.29	0.0387813
3883.93	0.0387695
3893.57	0.038706
3903.22	0.038614
3912.86	0.0390156
3922.5	0.0379248
3932.14	0.0382172
3941.79	0.0374999
3951.43	0.0383306
3961.07	0.0376974
3970.71	0.0388045
3980.36	0.0378826
3990	0.0388083
3999.64	0.0385549
