Measurement: Infrared, Infrared Data Processed
Mineral: Andradite
Rruff sample: R050311
Ideal chemistry: Ca_3_Fe^3+^_2_(SiO_4_)_3_
Locality: Calaveras County, California, USA
Source: Eugene Schlepp
Description: Deep red crystals
Measured chemistry: (Ca_2.88_Mn_0.07_Fe^2+^_0.05_)_Σ=3_(Fe^3+^_1.39_Al_0.59_Ti_0.02_)_Σ=2_((Si_0.99_Al_0.01_)_Σ=1_O_4_)_3_
x	intensity
399.193	0.321664
408.835	0.284076
418.477	0.24495
428.12	0.215343
437.762	0.209072
447.404	0.203244
457.047	0.16868
466.689	0.127185
476.331	0.112778
485.974	0.119244
495.616	0.0943868
505.258	0.110791
514.901	0.18232
524.543	0.156904
534.185	0.0917378
543.828	0.0541934
553.47	0.0413428
563.112	0.037196
572.755	0.0338078
582.397	0.0343954
592.039	0.0505037
601.682	0.0680873
611.324	0.0530669
620.966	0.0425636
630.609	0.0385484
640.251	0.0437755
649.893	0.0500503
659.536	0.0562699
669.178	0.0626703
678.82	0.0696796
688.463	0.0816882
698.105	0.096406
707.747	0.11354
717.39	0.133757
727.032	0.159381
736.674	0.189997
746.317	0.216048
755.959	0.238359
765.601	0.267962
775.244	0.301638
784.886	0.336583
794.528	0.365813
804.171	0.383468
813.813	0.382726
823.455	0.351004
833.098	0.324272
842.74	0.300512
852.382	0.242839
862.025	0.192019
871.667	0.174408
881.309	0.231959
890.952	0.314694
900.594	0.286544
910.236	0.227831
919.879	0.183515
929.521	0.150449
939.163	0.121256
948.806	0.0965358
958.448	0.072801
968.09	0.0508825
977.733	0.033041
987.375	0.0233838
997.017	0.0185703
1006.66	0.0146289
1016.3	0.0125678
1025.94	0.0107621
1035.59	0.00952537
1045.23	0.00841125
1054.87	0.00722703
1064.51	0.0060716
1074.16	0.00561927
1083.8	0.00493752
1093.44	0.0047631
1103.08	0.0041879
1112.72	0.00342998
1122.37	0.00298297
1132.01	0.00248107
1141.65	0.00116547
1151.3	0.000208326
1160.94	-7.52349e-05
1170.58	-0.000707159
1180.22	-0.000902893
1189.86	-0.000832931
1199.51	-0.000431407
1209.15	-0.000509207
1218.79	-0.000722169
1228.43	-0.000629873
1238.08	-0.000834405
1247.72	-0.000728245
1257.36	-0.000753052
1267	-0.00017583
1276.64	-4.32716e-05
1286.29	0.000245331
1295.93	0.0016044
1305.57	0.00163885
1315.21	0.00244544
1324.86	0.00287639
1334.5	0.00335704
1344.14	0.00344214
1353.78	0.00355758
1363.43	0.00381189
1373.07	0.00331424
1382.71	0.00379397
1392.35	0.0045771
1401.99	0.00524073
1411.64	0.00583382
1421.28	0.00625113
1430.92	0.00593903
1440.57	0.00527173
1450.21	0.00415724
1459.85	0.0030059
1469.49	0.00424125
1479.13	0.00658149
1488.78	0.00782114
1498.42	0.00789693
1508.06	0.00821774
1517.7	0.00884116
1527.35	0.00923522
1536.99	0.00949469
1546.63	0.0105286
1556.27	0.0109273
1565.91	0.0111965
1575.56	0.0113608
1585.2	0.0109384
1594.84	0.0106704
1604.48	0.0105911
1614.13	0.0100732
1623.77	0.0096168
1633.41	0.00974793
1643.05	0.0102069
1652.7	0.0106072
1662.34	0.0103617
1671.98	0.0101543
1681.62	0.00974444
1691.27	0.00906053
1700.91	0.00734102
1710.55	0.00356841
1720.19	0.00414925
1729.84	0.00339166
1739.48	0.000474319
1749.12	0.00315532
1758.76	0.0077344
1768.4	0.00918411
1778.05	0.0107243
1787.69	0.010477
1797.33	0.0107467
1806.97	0.0105065
1816.62	0.0114211
1826.26	0.0113262
1835.9	0.0110691
1845.54	0.011544
1855.18	0.010906
1864.83	0.0124206
1874.47	0.0133595
1884.11	0.012437
1893.75	0.0124259
1903.4	0.013159
1913.04	0.0128002
1922.68	0.0137168
1932.32	0.0129616
1941.97	0.0154009
1951.61	0.0149831
1961.25	0.01525
1970.89	0.0146638
1980.54	0.0204513
1990.18	0.0165412
1999.82	0.0162784
2009.46	0.0171755
2019.11	0.0163655
2028.75	0.0157338
2038.39	0.0189874
2048.03	0.0204568
2057.67	0.018482
2067.32	0.0192147
2076.96	0.0161499
2086.6	0.0190886
2096.24	0.017545
2105.89	0.0189695
2115.53	0.0182198
2125.17	0.016751
2134.81	0.0175719
2144.45	0.0167485
2154.1	0.0194497
2163.74	0.0223974
2173.38	0.025669
2183.02	0.0224187
2192.67	0.0215203
2202.31	0.0240242
2211.95	0.0232438
2221.59	0.0206216
2231.24	0.0224547
2240.88	0.022486
2250.52	0.0195583
2260.16	0.021486
2269.8	0.021273
2279.45	0.0217405
2289.09	0.0231013
2298.73	0.0229942
2308.38	0.0232057
2318.02	0.023683
2327.66	0.0235432
2337.3	0.0223871
2346.94	0.0228492
2356.59	0.023073
2366.23	0.0226428
2375.87	0.0209239
2385.51	0.0214052
2395.16	0.0214188
2404.8	0.0213389
2414.44	0.0212875
2424.08	0.0228855
2433.72	0.0220013
2443.37	0.0219325
2453.01	0.0237063
2462.65	0.0219218
2472.29	0.021887
2481.94	0.0219676
2491.58	0.0218993
2501.22	0.02254
2510.86	0.0230156
2520.51	0.0221052
2530.15	0.0207384
2539.79	0.0234802
2549.43	0.0238244
2559.07	0.0230836
2568.72	0.0242596
2578.36	0.0236715
2588	0.0241536
2597.64	0.0234666
2607.29	0.0243516
2616.93	0.0248251
2626.57	0.0246732
2636.21	0.0238249
2645.86	0.025115
2655.5	0.0239576
2665.14	0.0241478
2674.78	0.0239578
2684.43	0.0233438
2694.07	0.0244463
2703.71	0.0242491
2713.35	0.0253411
2722.99	0.0252624
2732.64	0.02398
2742.28	0.0230855
2751.92	0.0257931
2761.56	0.0258503
2771.21	0.0264094
2780.85	0.0270923
2790.49	0.0260766
2800.13	0.0267163
2809.78	0.0270372
2819.42	0.0258168
2829.06	0.0252061
2838.7	0.0248431
2848.34	0.0268868
2857.99	0.026214
2867.63	0.0261423
2877.27	0.0262745
2886.91	0.0236661
2896.56	0.0246324
2906.2	0.0239689
2915.84	0.0255646
2925.48	0.0271131
2935.13	0.0293201
2944.77	0.0269332
2954.41	0.0265462
2964.05	0.0298839
2973.7	0.0270005
2983.34	0.0302719
2992.98	0.0299812
3002.62	0.0309735
3012.26	0.0297277
3021.91	0.0327861
3031.55	0.0290291
3041.19	0.0315985
3050.83	0.0307401
3060.48	0.0309641
3070.12	0.0282703
3079.76	0.0311947
3089.4	0.0323334
3099.05	0.0308953
3108.69	0.0320145
3118.33	0.0302031
3127.97	0.0308475
3137.61	0.0306054
3147.26	0.0330441
3156.9	0.0324563
3166.54	0.0303794
3176.18	0.031925
3185.83	0.0326496
3195.47	0.0308121
3205.11	0.0299658
3214.75	0.0320886
3224.4	0.0303129
3234.04	0.0300997
3243.68	0.0316624
3253.32	0.0300384
3262.97	0.0284398
3272.61	0.0319102
3282.25	0.0283138
3291.89	0.0333023
3301.53	0.0329517
3311.18	0.0322557
3320.82	0.0324323
3330.46	0.0315101
3340.1	0.0339661
3349.75	0.031248
3359.39	0.0318234
3369.03	0.0343791
3378.67	0.0341534
3388.32	0.0311456
3397.96	0.0364348
3407.6	0.0321486
3417.24	0.0323738
3426.89	0.0315946
3436.53	0.0309479
3446.17	0.0326929
3455.81	0.0323878
3465.45	0.0345369
3475.1	0.0333777
3484.74	0.0360343
3494.38	0.0321747
3504.02	0.0356928
3513.67	0.0386034
3523.31	0.0360011
3532.95	0.033331
3542.59	0.0348945
3552.24	0.0327589
3561.88	0.0365491
3571.52	0.0340338
3581.16	0.0354457
3590.8	0.0380301
3600.45	0.036718
3610.09	0.0369228
3619.73	0.0334964
3629.37	0.0343619
3639.02	0.0316706
3648.66	0.0372223
3658.3	0.0328494
3667.94	0.0347039
3677.59	0.0334648
3687.23	0.0346031
3696.87	0.0314202
3706.51	0.0377134
3716.16	0.0363517
3725.8	0.0317144
3735.44	0.0362215
3745.08	0.0330642
3754.72	0.039255
3764.37	0.0353839
3774.01	0.0339693
3783.65	0.0344146
3793.29	0.0384351
3802.94	0.0375323
3812.58	0.0368971
3822.22	0.036672
3831.86	0.0354157
3841.51	0.0405835
3851.15	0.0360503
3860.79	0.0344849
3870.43	0.0352522
3880.07	0.0332285
3889.72	0.0308679
3899.36	0.0380049
3909	0.0343492
3918.64	0.0328231
3928.29	0.034908
3937.93	0.0335209
3947.57	0.0375593
3957.21	0.0356543
3966.86	0.0317617
3976.5	0.0369671
3986.14	0.033665
3995.78	0.0383834
