Measurement: Infrared, Infrared Data Processed
Mineral: Andradite
Rruff sample: R050377
Ideal chemistry: Ca_3_Fe^3+^_2_(SiO_4_)_3_
Locality: Zlatoust District, South Urals, Russia
Source: University of Arizona Mineral Museum
Description: Dark red cubes
Measured chemistry: Ca_3.00_(Fe^3+^_1.48_Ti_0.31_Mg_0.14_Zr_0.07_)_Σ=2_(Si_2.73_Al_0.24_Ti_0.03_)_Σ=3_O_12_
x	intensity
399.193	0.209894
408.835	0.20149
418.477	0.196713
428.12	0.236661
437.762	0.215962
447.404	0.176642
457.047	0.153578
466.689	0.143314
476.331	0.141592
485.974	0.126756
495.616	0.147263
505.258	0.193001
514.901	0.202999
524.543	0.187894
534.185	0.179208
543.828	0.193566
553.47	0.218202
563.112	0.237745
572.755	0.252617
582.397	0.252282
592.039	0.238847
601.682	0.225854
611.324	0.220764
620.966	0.215226
630.609	0.211569
640.251	0.205825
649.893	0.199232
659.536	0.190348
669.178	0.179415
678.82	0.172391
688.463	0.170279
698.105	0.164044
707.747	0.15874
717.39	0.158022
727.032	0.160801
736.674	0.165768
746.317	0.168824
755.959	0.17197
765.601	0.174084
775.244	0.179982
784.886	0.190046
794.528	0.204215
804.171	0.21562
813.813	0.215863
823.455	0.213984
833.098	0.203371
842.74	0.183845
852.382	0.160444
862.025	0.146402
871.667	0.155793
881.309	0.18477
890.952	0.183452
900.594	0.16292
910.236	0.157178
919.879	0.148512
929.521	0.133437
939.163	0.12109
948.806	0.104949
958.448	0.0884868
968.09	0.0724915
977.733	0.0585262
987.375	0.047983
997.017	0.0391954
1006.66	0.0337421
1016.3	0.0301123
1025.94	0.0269401
1035.59	0.0254243
1045.23	0.0247265
1054.87	0.0239246
1064.51	0.0226126
1074.16	0.0212075
1083.8	0.0205291
1093.44	0.0191021
1103.08	0.0175569
1112.72	0.0167177
1122.37	0.0159012
1132.01	0.0154386
1141.65	0.0139047
1151.3	0.0137054
1160.94	0.0128053
1170.58	0.0123664
1180.22	0.0123976
1189.86	0.0123534
1199.51	0.0121046
1209.15	0.0126521
1218.79	0.0121631
1228.43	0.0120319
1238.08	0.0123687
1247.72	0.0126021
1257.36	0.0135551
1267	0.0138366
1276.64	0.0150634
1286.29	0.0154835
1295.93	0.0153171
1305.57	0.0161192
1315.21	0.0167845
1324.86	0.0172448
1334.5	0.0183071
1344.14	0.0191236
1353.78	0.0203197
1363.43	0.0215488
1373.07	0.0231829
1382.71	0.0246415
1392.35	0.0266759
1401.99	0.0286644
1411.64	0.0295111
1421.28	0.030277
1430.92	0.0307877
1440.57	0.0306651
1450.21	0.0312975
1459.85	0.0312367
1469.49	0.0316711
1479.13	0.0327454
1488.78	0.0334849
1498.42	0.0336879
1508.06	0.0333063
1517.7	0.033416
1527.35	0.0329619
1536.99	0.0328561
1546.63	0.0329054
1556.27	0.0331488
1565.91	0.0329069
1575.56	0.033297
1585.2	0.0332264
1594.84	0.034374
1604.48	0.0343728
1614.13	0.0351058
1623.77	0.036094
1633.41	0.0362032
1643.05	0.0374618
1652.7	0.0375979
1662.34	0.0380752
1671.98	0.0378298
1681.62	0.0370267
1691.27	0.0369865
1700.91	0.0373819
1710.55	0.037581
1720.19	0.0375323
1729.84	0.0374844
1739.48	0.0368103
1749.12	0.036052
1758.76	0.0372101
1768.4	0.0380725
1778.05	0.0387787
1787.69	0.0397445
1797.33	0.039791
1806.97	0.0404069
1816.62	0.0407754
1826.26	0.0409342
1835.9	0.0413021
1845.54	0.0416466
1855.18	0.0414907
1864.83	0.0423596
1874.47	0.0430401
1884.11	0.0430919
1893.75	0.0435301
1903.4	0.0447929
1913.04	0.0437253
1922.68	0.0457033
1932.32	0.0455259
1941.97	0.0446294
1951.61	0.0438635
1961.25	0.0482291
1970.89	0.0479208
1980.54	0.0511211
1990.18	0.0487028
1999.82	0.0496089
2009.46	0.0477385
2019.11	0.0503004
2028.75	0.0489876
2038.39	0.0533846
2048.03	0.0530238
2057.67	0.0543002
2067.32	0.0534397
2076.96	0.0566232
2086.6	0.0548424
2096.24	0.0540585
2105.89	0.0568287
2115.53	0.055993
2125.17	0.0567015
2134.81	0.0565486
2144.45	0.058181
2154.1	0.0539766
2163.74	0.0616166
2173.38	0.0562341
2183.02	0.0569525
2192.67	0.0611581
2202.31	0.0634602
2211.95	0.0602775
2221.59	0.0611302
2231.24	0.061221
2240.88	0.0625529
2250.52	0.0632011
2260.16	0.0662498
2269.8	0.0659065
2279.45	0.0656424
2289.09	0.0668639
2298.73	0.067849
2308.38	0.0667571
2318.02	0.0683855
2327.66	0.0688453
2337.3	0.0695888
2346.94	0.0674106
2356.59	0.0690687
2366.23	0.0690571
2375.87	0.0676451
2385.51	0.0668004
2395.16	0.0689533
2404.8	0.069803
2414.44	0.0686402
2424.08	0.0698564
2433.72	0.0713381
2443.37	0.0719154
2453.01	0.0718837
2462.65	0.0707468
2472.29	0.0724422
2481.94	0.072725
2491.58	0.0722111
2501.22	0.0741289
2510.86	0.0745157
2520.51	0.0734781
2530.15	0.0745587
2539.79	0.0743407
2549.43	0.0736858
2559.07	0.0763181
2568.72	0.0747932
2578.36	0.0761832
2588	0.0771944
2597.64	0.0773779
2607.29	0.0770968
2616.93	0.0800452
2626.57	0.0797806
2636.21	0.0791391
2645.86	0.0789707
2655.5	0.0799585
2665.14	0.080066
2674.78	0.0805005
2684.43	0.080928
2694.07	0.0800421
2703.71	0.0811901
2713.35	0.082131
2722.99	0.0830029
2732.64	0.0819487
2742.28	0.0836946
2751.92	0.0823354
2761.56	0.0844821
2771.21	0.0857146
2780.85	0.0862864
2790.49	0.0844099
2800.13	0.0848211
2809.78	0.0864854
2819.42	0.0857859
2829.06	0.0866466
2838.7	0.0893027
2848.34	0.0871202
2857.99	0.0867413
2867.63	0.0880143
2877.27	0.0894116
2886.91	0.0897969
2896.56	0.09107
2906.2	0.0914708
2915.84	0.0891343
2925.48	0.0918929
2935.13	0.0917463
2944.77	0.0922223
2954.41	0.0932676
2964.05	0.0942519
2973.7	0.0945086
2983.34	0.0948607
2992.98	0.0953217
3002.62	0.0948754
3012.26	0.0952393
3021.91	0.0948746
3031.55	0.0963611
3041.19	0.0966678
3050.83	0.0968466
3060.48	0.0964643
3070.12	0.0978805
3079.76	0.0990427
3089.4	0.0999182
3099.05	0.0994431
3108.69	0.10052
3118.33	0.102521
3127.97	0.101771
3137.61	0.101831
3147.26	0.103665
3156.9	0.103914
3166.54	0.103957
3176.18	0.104628
3185.83	0.105628
3195.47	0.103268
3205.11	0.104885
3214.75	0.104834
3224.4	0.10401
3234.04	0.106536
3243.68	0.107559
3253.32	0.10833
3262.97	0.110865
3272.61	0.105653
3282.25	0.109637
3291.89	0.112135
3301.53	0.108511
3311.18	0.108912
3320.82	0.110888
3330.46	0.111997
3340.1	0.111583
3349.75	0.108686
3359.39	0.109239
3369.03	0.113513
3378.67	0.114065
3388.32	0.112187
3397.96	0.108987
3407.6	0.109442
3417.24	0.11331
3426.89	0.114388
3436.53	0.115589
3446.17	0.112131
3455.81	0.111659
3465.45	0.116084
3475.1	0.115701
3484.74	0.111908
3494.38	0.116144
3504.02	0.113171
3513.67	0.11412
3523.31	0.113281
3532.95	0.11163
3542.59	0.11334
3552.24	0.113282
3561.88	0.113159
3571.52	0.111754
3581.16	0.110083
3590.8	0.10804
3600.45	0.114135
3610.09	0.113709
3619.73	0.112877
3629.37	0.107551
3639.02	0.103725
3648.66	0.103618
3658.3	0.105587
3667.94	0.109024
3677.59	0.108503
3687.23	0.103108
3696.87	0.104734
3706.51	0.104562
3716.16	0.103929
3725.8	0.10661
3735.44	0.105738
3745.08	0.105019
3754.72	0.114698
3764.37	0.10479
3774.01	0.109168
3783.65	0.109438
3793.29	0.106739
3802.94	0.108318
3812.58	0.111895
3822.22	0.108875
3831.86	0.107708
3841.51	0.116016
3851.15	0.113826
3860.79	0.111438
3870.43	0.108403
3880.07	0.108638
3889.72	0.110542
3899.36	0.111639
3909	0.114111
3918.64	0.116723
3928.29	0.11522
3937.93	0.112895
3947.57	0.111134
3957.21	0.11071
3966.86	0.113014
3976.5	0.115639
3986.14	0.113347
3995.78	0.110985
