Measurement: Infrared, Infrared Data Processed
Mineral: Anglesite
Rruff sample: R050408
Ideal chemistry: Pb^2+^S^6+^O_4_
Locality: Tsumeb mine, Tsumeb, Otavi District, Oshikoto, Namibia
Source: California Institute of Technology
Description: Pale yellow fragment
Measured chemistry: Pb_1.00_S_1.00_O_4_
x	intensity
399.193	0.0288246
408.835	0.0332972
418.477	0.0392413
428.12	0.0460174
437.762	0.0582006
447.404	0.0549862
457.047	0.0676878
466.689	0.0784932
476.331	0.081397
485.974	0.0886483
495.616	0.100673
505.258	0.115683
514.901	0.134447
524.543	0.159094
534.185	0.190705
543.828	0.229283
553.47	0.278463
563.112	0.338878
572.755	0.415273
582.397	0.504977
592.039	0.488946
601.682	0.288661
611.324	0.173684
620.966	0.232602
630.609	0.233219
640.251	0.0882595
649.893	0.0308558
659.536	0.0248555
669.178	0.0259295
678.82	0.0232822
688.463	0.0248162
698.105	0.0283576
707.747	0.0323848
717.39	0.0372444
727.032	0.0431115
736.674	0.0503606
746.317	0.0564107
755.959	0.0628484
765.601	0.0711327
775.244	0.0788249
784.886	0.0891811
794.528	0.0997534
804.171	0.109838
813.813	0.121998
823.455	0.136102
833.098	0.153494
842.74	0.171381
852.382	0.193202
862.025	0.21535
871.667	0.244124
881.309	0.274462
890.952	0.30805
900.594	0.343127
910.236	0.377841
919.879	0.416098
929.521	0.454343
939.163	0.498646
948.806	0.556508
958.448	0.627026
968.09	0.589861
977.733	0.592287
987.375	0.684077
997.017	0.73187
1006.66	0.745049
1016.3	0.763018
1025.94	0.753161
1035.59	0.710072
1045.23	0.649353
1054.87	0.574534
1064.51	0.501138
1074.16	0.440759
1083.8	0.393866
1093.44	0.354998
1103.08	0.320869
1112.72	0.292365
1122.37	0.264455
1132.01	0.235655
1141.65	0.218071
1151.3	0.230328
1160.94	0.250719
1170.58	0.243888
1180.22	0.213547
1189.86	0.175004
1199.51	0.138341
1209.15	0.105125
1218.79	0.0673467
1228.43	0.0395425
1238.08	0.0246832
1247.72	0.0159903
1257.36	0.0110632
1267	0.00784113
1276.64	0.0058543
1286.29	0.00483727
1295.93	0.00412909
1305.57	0.0039749
1315.21	0.00383848
1324.86	0.00370569
1334.5	0.00365096
1344.14	0.00336061
1353.78	0.00421678
1363.43	0.0039927
1373.07	0.00424005
1382.71	0.00438874
1392.35	0.0054887
1401.99	0.00521314
1411.64	0.00544117
1421.28	0.0055651
1430.92	0.00515985
1440.57	0.00537831
1450.21	0.00487182
1459.85	0.00532157
1469.49	0.00635616
1479.13	0.00825016
1488.78	0.00874245
1498.42	0.00874271
1508.06	0.00916047
1517.7	0.00868293
1527.35	0.00942142
1536.99	0.00963346
1546.63	0.00967887
1556.27	0.0102244
1565.91	0.0106903
1575.56	0.0112139
1585.2	0.0105207
1594.84	0.0104318
1604.48	0.0102833
1614.13	0.0106483
1623.77	0.0103458
1633.41	0.0109852
1643.05	0.011649
1652.7	0.0115327
1662.34	0.0115841
1671.98	0.0111872
1681.62	0.0111535
1691.27	0.0112935
1700.91	0.0117148
1710.55	0.0102978
1720.19	0.0104261
1729.84	0.00986119
1739.48	0.00783133
1749.12	0.00838268
1758.76	0.0118018
1768.4	0.0139566
1778.05	0.014119
1787.69	0.0144059
1797.33	0.0143917
1806.97	0.0149818
1816.62	0.0146653
1826.26	0.0150467
1835.9	0.0156008
1845.54	0.0156142
1855.18	0.0151928
1864.83	0.0171294
1874.47	0.0162998
1884.11	0.0161664
1893.75	0.0171472
1903.4	0.0170459
1913.04	0.0175963
1922.68	0.0172264
1932.32	0.0165003
1941.97	0.0183813
1951.61	0.0176966
1961.25	0.0169331
1970.89	0.0193286
1980.54	0.017805
1990.18	0.0220084
1999.82	0.0195837
2009.46	0.0191381
2019.11	0.0214234
2028.75	0.0184344
2038.39	0.0211786
2048.03	0.0187526
2057.67	0.021066
2067.32	0.0215502
2076.96	0.0217764
2086.6	0.0232275
2096.24	0.0252553
2105.89	0.0246164
2115.53	0.0249479
2125.17	0.0260204
2134.81	0.0223586
2144.45	0.0187209
2154.1	0.0146664
2163.74	0.0172437
2173.38	0.0215443
2183.02	0.0203884
2192.67	0.020307
2202.31	0.0223623
2211.95	0.0220885
2221.59	0.0238433
2231.24	0.0254722
2240.88	0.0249978
2250.52	0.0254446
2260.16	0.0281575
2269.8	0.028886
2279.45	0.0273039
2289.09	0.0308827
2298.73	0.0293919
2308.38	0.0312164
2318.02	0.0320862
2327.66	0.0313496
2337.3	0.0309936
2346.94	0.0306825
2356.59	0.0319565
2366.23	0.0300493
2375.87	0.0320918
2385.51	0.0305741
2395.16	0.031288
2404.8	0.032044
2414.44	0.0316182
2424.08	0.0343759
2433.72	0.0326082
2443.37	0.0347628
2453.01	0.0354758
2462.65	0.0354339
2472.29	0.036125
2481.94	0.0366512
2491.58	0.0351893
2501.22	0.0369861
2510.86	0.0381941
2520.51	0.0389947
2530.15	0.0375961
2539.79	0.0396892
2549.43	0.0383595
2559.07	0.0408649
2568.72	0.040197
2578.36	0.0409069
2588	0.0401463
2597.64	0.0409308
2607.29	0.0409679
2616.93	0.0410033
2626.57	0.0419519
2636.21	0.042888
2645.86	0.0405014
2655.5	0.0422129
2665.14	0.0414874
2674.78	0.0406285
2684.43	0.0413153
2694.07	0.0416934
2703.71	0.0417862
2713.35	0.043611
2722.99	0.0433703
2732.64	0.044036
2742.28	0.0434601
2751.92	0.0437868
2761.56	0.0435086
2771.21	0.0453514
2780.85	0.0452317
2790.49	0.0446651
2800.13	0.045245
2809.78	0.045574
2819.42	0.0460301
2829.06	0.0450287
2838.7	0.0459281
2848.34	0.0459854
2857.99	0.0468987
2867.63	0.0475075
2877.27	0.0465593
2886.91	0.0475252
2896.56	0.0483472
2906.2	0.0470603
2915.84	0.0481796
2925.48	0.0494598
2935.13	0.0524375
2944.77	0.0510553
2954.41	0.0499746
2964.05	0.0527524
2973.7	0.0508677
2983.34	0.0507475
2992.98	0.0536046
3002.62	0.054635
3012.26	0.0531761
3021.91	0.0546132
3031.55	0.0528557
3041.19	0.0563914
3050.83	0.0568854
3060.48	0.0530888
3070.12	0.0522536
3079.76	0.0545707
3089.4	0.0587084
3099.05	0.0564646
3108.69	0.0574387
3118.33	0.0562737
3127.97	0.0566384
3137.61	0.0572312
3147.26	0.0587754
3156.9	0.0585394
3166.54	0.0567303
3176.18	0.0586004
3185.83	0.0607558
3195.47	0.0602801
3205.11	0.060055
3214.75	0.0588452
3224.4	0.0602244
3234.04	0.0599118
3243.68	0.0641985
3253.32	0.0617047
3262.97	0.0612483
3272.61	0.0634808
3282.25	0.0615351
3291.89	0.0625898
3301.53	0.0641511
3311.18	0.0629408
3320.82	0.0636405
3330.46	0.0644385
3340.1	0.0630537
3349.75	0.0649822
3359.39	0.0628398
3369.03	0.0618266
3378.67	0.0642071
3388.32	0.063391
3397.96	0.0666894
3407.6	0.0652543
3417.24	0.0647129
3426.89	0.0683193
3436.53	0.0674866
3446.17	0.0666241
3455.81	0.0660632
3465.45	0.0662766
3475.1	0.0678327
3484.74	0.0677329
3494.38	0.0700877
3504.02	0.067737
3513.67	0.0660447
3523.31	0.0722863
3532.95	0.067379
3542.59	0.0697881
3552.24	0.0735152
3561.88	0.0703061
3571.52	0.07237
3581.16	0.0714722
3590.8	0.072366
3600.45	0.0682592
3610.09	0.0713052
3619.73	0.0729811
3629.37	0.0724673
3639.02	0.0709644
3648.66	0.0713842
3658.3	0.0734977
3667.94	0.073394
3677.59	0.0711408
3687.23	0.0724759
3696.87	0.0727352
3706.51	0.0722215
3716.16	0.0739858
3725.8	0.0771023
3735.44	0.0774261
3745.08	0.0757125
3754.72	0.0798173
3764.37	0.0776215
3774.01	0.0747084
3783.65	0.0817979
3793.29	0.0771691
3802.94	0.0774011
3812.58	0.0799574
3822.22	0.0753649
3831.86	0.0818302
3841.51	0.0787841
3851.15	0.0796961
3860.79	0.0781091
3870.43	0.0796378
3880.07	0.0777609
3889.72	0.0840544
3899.36	0.0828702
3909	0.0848637
3918.64	0.0816501
3928.29	0.0804446
3937.93	0.0835371
3947.57	0.0892317
3957.21	0.0796467
3966.86	0.083561
3976.5	0.0846871
3986.14	0.0895785
3995.78	0.0842637
