Measurement: Infrared, Infrared Data Processed
Mineral: Anglesite
Rruff sample: R040004
Ideal chemistry: Pb^2+^S^6+^O_4_
Locality: Erupcion mine, Los Lamentos, Chihuahua, Mexico
Source: University of Arizona Mineral Museum
Description: Tan colored tabular crystal
Measured chemistry: Pb_1.00_S_1.00_O_4_
x	intensity
374.123	0.015838
383.765	0.00873785
393.407	0.0197922
403.05	0.0244755
412.692	0.0260238
422.334	0.0302825
431.976	0.0368719
441.619	0.0431745
451.261	0.0473568
460.904	0.0597392
470.546	0.0644296
480.188	0.0696022
489.83	0.07763
499.473	0.0883209
509.115	0.101502
518.758	0.116041
528.4	0.133784
538.042	0.155665
547.684	0.18137
557.327	0.212334
566.969	0.24533
576.611	0.283105
586.254	0.315451
595.896	0.274954
605.538	0.168126
615.181	0.129275
624.823	0.170469
634.466	0.122997
644.108	0.0375092
653.75	0.0182045
663.393	0.018965
673.035	0.0191551
682.677	0.0193159
692.319	0.0223453
701.962	0.0265675
711.604	0.0304427
721.246	0.035575
730.889	0.0408283
740.531	0.0465081
750.173	0.0520808
759.816	0.0586137
769.458	0.0653833
779.101	0.0721564
788.743	0.080392
798.385	0.0888827
808.028	0.0983406
817.67	0.108797
827.312	0.12047
836.955	0.13291
846.597	0.146937
856.239	0.162049
865.881	0.178997
875.524	0.198004
885.166	0.217723
894.808	0.238431
904.451	0.258163
914.093	0.278828
923.736	0.299132
933.378	0.319698
943.02	0.345366
952.663	0.374745
962.305	0.401836
971.947	0.343175
981.59	0.394923
991.232	0.427021
1000.87	0.440259
1010.52	0.447726
1020.16	0.454622
1029.8	0.447701
1039.44	0.430376
1049.09	0.403076
1058.73	0.365793
1068.37	0.327291
1078.01	0.294237
1087.65	0.267241
1097.3	0.244438
1106.94	0.224536
1116.58	0.206521
1126.22	0.187094
1135.87	0.167538
1145.51	0.159696
1155.15	0.166396
1164.79	0.168431
1174.44	0.155537
1184.08	0.133572
1193.72	0.109043
1203.36	0.0866725
1213.01	0.0648229
1222.65	0.0381866
1232.29	0.0218647
1241.93	0.0131851
1251.58	0.00794078
1261.22	0.00483192
1270.86	0.00272876
1280.5	0.00154375
1290.14	0.000657943
1299.79	0.000196195
1309.43	8.76873e-05
1319.07	0.000113439
1328.71	-0.000200088
1338.36	-0.000236229
1348	-0.00042916
1357.64	-0.000594319
1367.28	-0.000708591
1376.92	-0.000836914
1386.57	-0.00083548
1396.21	-0.000821716
1405.85	-0.000671601
1415.49	-0.000771901
1425.14	-0.000424493
1434.78	-0.00032099
1444.42	-0.000348982
1454.06	0.000108401
1463.71	0.00034537
1473.35	0.000883643
1482.99	0.00084004
1492.63	0.000930749
1502.28	0.000937804
1511.92	0.000792336
1521.56	0.0010146
1531.2	0.000731921
1540.85	0.00138224
1550.49	0.000618087
1560.13	0.00196644
1569.77	0.00138887
1579.41	0.00125807
1589.06	0.000713389
1598.7	0.000796634
1608.34	0.000683626
1617.98	0.000885739
1627.63	0.00070753
1637.27	0.00111147
1646.91	0.00126614
1656.55	0.000844698
1666.19	0.000599506
1675.84	0.00101897
1685.48	0.0013914
1695.12	0.00145929
1704.77	0.000883007
1714.41	0.000977141
1724.05	0.000564019
1733.69	0.00119967
1743.33	-0.000139484
1752.98	-0.000200763
1762.62	-0.000269782
1772.26	6.92513e-05
1781.9	-0.000116305
1791.55	-0.000148678
1801.19	-8.33496e-05
1810.83	-2.99905e-05
1820.47	-0.000249451
1830.12	-0.000328716
1839.76	-0.000583487
1849.4	-0.000129646
1859.04	-0.000713605
1868.68	-0.000108127
1878.33	-0.000315614
1887.97	-0.000144552
1897.61	0.000176951
1907.25	-0.000313859
1916.9	0.000369228
1926.54	-0.000570145
1936.18	0.000499101
1945.82	-0.000457725
1955.46	-0.000607176
1965.11	-0.000674756
1974.75	-0.000494095
1984.39	0.000848148
1994.04	0.00215606
2003.68	0.000767939
2013.32	0.000165829
2022.96	0.000372544
2032.6	-0.00191484
2042.25	-0.000271685
2051.89	0.000337686
2061.53	-0.000683831
2071.17	0.000259511
2080.82	0.000944707
2090.46	0.00063563
2100.1	0.00139369
2109.74	0.0017028
2119.39	0.0013416
2129.03	-0.000330625
2138.67	-0.00112255
2148.31	-0.00210038
2157.95	-0.0037714
2167.6	-0.000656039
2177.24	0.00010238
2186.88	-0.00173969
2196.52	-0.000957072
2206.17	0.000304855
2215.81	0.000177545
2225.45	5.23906e-05
2235.09	0.000215767
2244.74	0.000544626
2254.38	-0.000165047
2264.02	0.000750236
2273.66	0.000862921
2283.3	0.00145861
2292.95	0.00159786
2302.59	0.00104324
2312.23	0.00143037
2321.87	0.00261805
2331.52	0.00223675
2341.16	0.00174688
2350.8	0.00140461
2360.44	0.00225136
2370.09	0.000973865
2379.73	-0.000381842
2389.37	-0.000320889
2399.01	-0.000619478
2408.66	-6.52298e-06
2418.3	-0.000854548
2427.94	0.000357892
2437.58	-0.000160534
2447.22	8.54097e-05
2456.87	0.000437133
2466.51	0.000714987
2476.15	0.00127984
2485.79	0.000570498
2495.44	0.00114111
2505.08	0.00164559
2514.72	0.000793528
2524.36	0.00194632
2534.01	0.00171585
2543.65	0.00182484
2553.29	0.00201232
2562.93	0.00144343
2572.57	0.00159149
2582.22	0.0019176
2591.86	0.001568
2601.5	0.00139814
2611.14	0.00133655
2620.79	0.00116154
2630.43	0.00138203
2640.07	0.000870694
2649.71	0.000766717
2659.36	0.000634331
2669	-0.00013509
2678.64	-0.000103824
2688.28	0.000202279
2697.93	4.25018e-05
2707.57	-0.000135597
2717.21	-0.00015717
2726.85	-0.000442263
2736.49	-9.75057e-05
2746.14	3.40417e-05
2755.78	-0.000102729
2765.42	-0.000319779
2775.06	-0.000323445
2784.71	-0.000453494
2794.35	-0.000104021
2803.99	-0.000435509
2813.63	-0.000155684
2823.28	-0.000130307
2832.92	2.92696e-05
2842.56	0.000537887
2852.2	0.00048577
2861.84	0.000727333
2871.49	0.000341546
2881.13	0.000980049
2890.77	0.00100021
2900.41	0.00105392
2910.06	0.000943534
2919.7	0.00187444
2929.34	0.00170669
2938.98	0.000811566
2948.62	0.00111749
2958.27	0.00183152
2967.91	0.000768837
2977.55	0.000102691
2987.2	-0.000820976
2996.84	-0.000714172
3006.48	-0.000188298
3016.12	-0.000209875
3025.76	-0.00106038
3035.41	-0.000927776
3045.05	-0.00132996
3054.69	-0.000655249
3064.33	-0.000431303
3073.98	-0.000234053
3083.62	-0.000849009
3093.26	-0.000516895
3102.9	-0.000403956
3112.55	-0.000807263
3122.19	-0.000549123
3131.83	-0.000435699
3141.47	-0.000100996
3151.11	-0.00104158
3160.76	-0.00133527
3170.4	-0.00072303
3180.04	-0.000653479
3189.68	-0.000504307
3199.33	-0.00069236
3208.97	-0.000601828
3218.61	-0.000652589
3228.25	-0.00095731
3237.9	-0.000628784
3247.54	-0.000344697
3257.18	-0.000159077
3266.82	-0.000979256
3276.47	-0.000479523
3286.11	-0.00018885
3295.75	-0.000312641
3305.39	-0.000853375
3315.03	-6.20112e-05
3324.68	-0.00064943
3334.32	-0.0012439
3343.96	-0.00100858
3353.6	0.000419237
3363.25	-0.000781246
3372.89	-0.000220425
3382.53	-0.000929229
3392.17	-0.000648528
3401.82	-0.000487492
3411.46	-0.000650294
3421.1	-0.000243858
3430.74	-0.000863448
3440.39	-0.000612721
3450.03	-0.000233255
3459.67	-0.00042586
3469.31	-0.000706002
3478.95	-0.000212975
3488.6	-0.000772975
3498.24	-5.01051e-05
3507.88	-0.000786625
3517.52	0.000225596
3527.17	0.000399336
3536.81	-0.000243023
3546.45	8.55997e-05
3556.09	0.000258602
3565.74	-0.000293724
3575.38	-0.000520244
3585.02	-0.000473157
3594.66	-0.000748158
3604.3	-0.00108446
3613.95	-0.000994518
3623.59	0.000678577
3633.23	-0.000968978
3642.87	-0.00120939
3652.52	-0.000253819
3662.16	-0.00164684
3671.8	0.000147901
3681.44	-0.000464976
3691.09	0.000813074
3700.73	-0.00100826
3710.37	0.00122077
3720.01	-0.00122753
3729.66	0.000142254
3739.3	0.000122972
3748.94	0.000858568
3758.58	0.000333123
3768.22	-0.000433184
3777.87	-0.00107652
3787.51	-0.00131372
3797.15	-0.000999689
3806.79	0.0010751
3816.44	0.000270054
3826.08	-0.000634275
3835.72	0.000192419
3845.36	-0.000712752
3855.01	0.000324309
3864.65	-5.75855e-05
3874.29	4.2282e-05
3883.93	0.000606343
3893.57	0.00065133
3903.22	-0.000781886
3912.86	-0.000223555
3922.5	0.000121504
3932.14	0.000205554
3941.79	-0.00111826
3951.43	-0.000902228
3961.07	-0.000800915
3970.71	0.000213087
3980.36	-0.00023108
3990	0.000316814
3999.64	0.000188447
