Measurement: Infrared, Infrared Data Processed
Mineral: Anhydrite
Rruff sample: R040012
Ideal chemistry: CaS^6+^O_4_
Locality: Moundhouse, Nevada, USA
Source: University of Arizona Mineral Museum
Description: White massive
Measured chemistry: Ca_1.00_S_1.00_O_4_
x	intensity
399.193	0
408.835	0.0181985
418.477	0.0140786
428.12	0.0137175
437.762	0.0110381
447.404	0.0131403
457.047	0.0130687
466.689	0.0143377
476.331	0.0145444
485.974	0.0134151
495.616	0.012995
505.258	0.0156395
514.901	0.0185289
524.543	0.0146602
534.185	0.0149273
543.828	0.0167756
553.47	0.0190443
563.112	0.0251085
572.755	0.0399019
582.397	0.0950163
592.039	0.334536
601.682	0.131432
611.324	0.191329
620.966	0.0627973
630.609	0.0208836
640.251	0.0237094
649.893	0.0333517
659.536	0.0640585
669.178	0.197932
678.82	0.192172
688.463	0.0653499
698.105	0.0145875
707.747	0.0121958
717.39	0.0114182
727.032	0.00999918
736.674	0.00999581
746.317	0.0109365
755.959	0.0107369
765.601	0.010922
775.244	0.0113097
784.886	0.0118817
794.528	0.0121682
804.171	0.0127091
813.813	0.0130403
823.455	0.0138191
833.098	0.0148667
842.74	0.0165932
852.382	0.0179174
862.025	0.0200745
871.667	0.0324108
881.309	0.0340491
890.952	0.0242901
900.594	0.0255415
910.236	0.0279179
919.879	0.0301775
929.521	0.0329491
939.163	0.0371566
948.806	0.0420766
958.448	0.0481854
968.09	0.0550435
977.733	0.0639362
987.375	0.074399
997.017	0.0895743
1006.66	0.106495
1016.3	0.126314
1025.94	0.144967
1035.59	0.179662
1045.23	0.224589
1054.87	0.283006
1064.51	0.357572
1074.16	0.446294
1083.8	0.542644
1093.44	0.635923
1103.08	0.629003
1112.72	0.599845
1122.37	0.548626
1132.01	0.482768
1141.65	0.427798
1151.3	0.378253
1160.94	0.293852
1170.58	0.223766
1180.22	0.169653
1189.86	0.128622
1199.51	0.0947183
1209.15	0.062441
1218.79	0.0443631
1228.43	0.0278567
1238.08	0.0172559
1247.72	0.0141986
1257.36	0.0114612
1267	0.0100623
1276.64	0.0101172
1286.29	0.0105326
1295.93	0.00966616
1305.57	0.00858176
1315.21	0.00879859
1324.86	0.00897919
1334.5	0.00960612
1344.14	0.0103662
1353.78	0.0114198
1363.43	0.0124346
1373.07	0.0143677
1382.71	0.0163079
1392.35	0.0196341
1401.99	0.0224512
1411.64	0.0260214
1421.28	0.0292193
1430.92	0.0315916
1440.57	0.0319841
1450.21	0.0315345
1459.85	0.0292938
1469.49	0.0265075
1479.13	0.0231281
1488.78	0.0196245
1498.42	0.0165783
1508.06	0.0138327
1517.7	0.0113431
1527.35	0.00986402
1536.99	0.00888349
1546.63	0.00791896
1556.27	0.00733295
1565.91	0.00734114
1575.56	0.00712027
1585.2	0.00750943
1594.84	0.0075964
1604.48	0.00761217
1614.13	0.00845968
1623.77	0.0100284
1633.41	0.00757291
1643.05	0.00701061
1652.7	0.00669554
1662.34	0.00623279
1671.98	0.00601585
1681.62	0.00620871
1691.27	0.00592416
1700.91	0.00556619
1710.55	0.00530855
1720.19	0.00522952
1729.84	0.00543264
1739.48	0.00461732
1749.12	0.00441519
1758.76	0.00480806
1768.4	0.00456005
1778.05	0.00484559
1787.69	0.00536616
1797.33	0.00571154
1806.97	0.00462606
1816.62	0.00476991
1826.26	0.00500412
1835.9	0.00502662
1845.54	0.0049905
1855.18	0.00430841
1864.83	0.00504003
1874.47	0.00499403
1884.11	0.00452409
1893.75	0.00378055
1903.4	0.00464909
1913.04	0.00408125
1922.68	0.00288921
1932.32	0.00394984
1941.97	0.00390748
1951.61	0.00344258
1961.25	0.00218956
1970.89	0.00305023
1980.54	0.00509753
1990.18	0.00284471
1999.82	0.00313523
2009.46	0.000900473
2019.11	0.00188363
2028.75	9.79701e-05
2038.39	0.00125641
2048.03	0.0032552
2057.67	0.00268175
2067.32	0.00350435
2076.96	0.00356795
2086.6	0.0030346
2096.24	0.00190566
2105.89	0.00298878
2115.53	0.00514008
2125.17	0.00483798
2134.81	0.00263229
2144.45	0.00042719
2154.1	-0.00869107
2163.74	-0.00278732
2173.38	-0.00442947
2183.02	-0.00147539
2192.67	-0.00330936
2202.31	-0.00152041
2211.95	-0.000912704
2221.59	-4.73773e-05
2231.24	8.73083e-05
2240.88	0.001666
2250.52	0.00208517
2260.16	0.00164236
2269.8	0.00355885
2279.45	0.00486577
2289.09	0.00577839
2298.73	0.00619699
2308.38	0.00672694
2318.02	0.00755672
2327.66	0.00721927
2337.3	0.00824315
2346.94	0.00759912
2356.59	0.00782132
2366.23	0.0066944
2375.87	0.00748372
2385.51	0.00730249
2395.16	0.00739691
2404.8	0.00774805
2414.44	0.00859779
2424.08	0.00860839
2433.72	0.00925768
2443.37	0.00911436
2453.01	0.0106032
2462.65	0.0102863
2472.29	0.011052
2481.94	0.00985781
2491.58	0.01086
2501.22	0.0111656
2510.86	0.0120589
2520.51	0.0113904
2530.15	0.0116836
2539.79	0.0105252
2549.43	0.0116674
2559.07	0.0113656
2568.72	0.01058
2578.36	0.0114086
2588	0.0120445
2597.64	0.0116752
2607.29	0.0118963
2616.93	0.0123461
2626.57	0.0120364
2636.21	0.0129033
2645.86	0.0125378
2655.5	0.0114248
2665.14	0.0121024
2674.78	0.0118295
2684.43	0.0124112
2694.07	0.0121172
2703.71	0.0120606
2713.35	0.0122594
2722.99	0.0122933
2732.64	0.0138866
2742.28	0.01204
2751.92	0.0120573
2761.56	0.012209
2771.21	0.0129231
2780.85	0.0120982
2790.49	0.0130912
2800.13	0.0125835
2809.78	0.0121173
2819.42	0.0127502
2829.06	0.0124276
2838.7	0.012469
2848.34	0.0137507
2857.99	0.013461
2867.63	0.0137521
2877.27	0.0142215
2886.91	0.0128519
2896.56	0.0137668
2906.2	0.0136503
2915.84	0.0156837
2925.48	0.0158841
2935.13	0.0154213
2944.77	0.0141552
2954.41	0.0145693
2964.05	0.0143341
2973.7	0.0145688
2983.34	0.0150645
2992.98	0.0136463
3002.62	0.0146689
3012.26	0.0141619
3021.91	0.0145717
3031.55	0.0151638
3041.19	0.0147798
3050.83	0.0155573
3060.48	0.0160753
3070.12	0.0155872
3079.76	0.0172123
3089.4	0.016526
3099.05	0.015902
3108.69	0.0170335
3118.33	0.0175559
3127.97	0.0179284
3137.61	0.0172329
3147.26	0.0175071
3156.9	0.0181125
3166.54	0.0193239
3176.18	0.0208791
3185.83	0.0197067
3195.47	0.0189568
3205.11	0.0179466
3214.75	0.0184314
3224.4	0.0193309
3234.04	0.0204895
3243.68	0.021112
3253.32	0.0205447
3262.97	0.02064
3272.61	0.0202406
3282.25	0.0214305
3291.89	0.0223934
3301.53	0.0226467
3311.18	0.0223471
3320.82	0.0237957
3330.46	0.0226115
3340.1	0.0234647
3349.75	0.022609
3359.39	0.0234689
3369.03	0.0247644
3378.67	0.0259173
3388.32	0.0264048
3397.96	0.0272337
3407.6	0.0286149
3417.24	0.027611
3426.89	0.027056
3436.53	0.0245608
3446.17	0.0262737
3455.81	0.0262985
3465.45	0.0228689
3475.1	0.0245626
3484.74	0.0235105
3494.38	0.0235047
3504.02	0.0240446
3513.67	0.0263828
3523.31	0.0251818
3532.95	0.0275885
3542.59	0.0258818
3552.24	0.0280083
3561.88	0.0245859
3571.52	0.0236896
3581.16	0.0232244
3590.8	0.022177
3600.45	0.0209773
3610.09	0.0186787
3619.73	0.0198694
3629.37	0.0188307
3639.02	0.0179844
3648.66	0.017807
3658.3	0.019012
3667.94	0.0190596
3677.59	0.0164008
3687.23	0.0189294
3696.87	0.0175089
3706.51	0.0181454
3716.16	0.0180171
3725.8	0.0171347
3735.44	0.0163787
3745.08	0.018184
3754.72	0.0187755
3764.37	0.0215382
3774.01	0.0193098
3783.65	0.0184454
3793.29	0.0193324
3802.94	0.0199231
3812.58	0.0193488
3822.22	0.0177904
3831.86	0.0172869
3841.51	0.0200586
3851.15	0.0184617
3860.79	0.0215916
3870.43	0.0179983
3880.07	0.0191894
3889.72	0.0213275
3899.36	0.0200129
3909	0.0204981
3918.64	0.0216805
3928.29	0.019115
3937.93	0.0208124
3947.57	0.0213921
3957.21	0.0213269
3966.86	0.0200942
3976.5	0.0236472
3986.14	0.0202666
3995.78	0.0199158
