Measurement: Infrared, Infrared Data Processed
Mineral: Ankerite
Rruff sample: R050181
Ideal chemistry: CaFe^2+^(CO_3_)_2_
Locality: Cerro Sapo, Cochabamba Department, Bolivia
Source: Marcus Origlieri
Description: White coarsely crystalline massive
Measured chemistry: Ca_1.00_(Fe^2+^_0.60_Mg_0.35_Mn^2+^_0.05_)_Î£=1_(CO_3_)_2_ ; C not measured but estimated by difference and stoichiometry
x	intensity
399.193	0
408.835	0.0463476
418.477	0.0358661
428.12	0.0281221
437.762	0.0248755
447.404	0.0230334
457.047	0.0224213
466.689	0.019874
476.331	0.0184492
485.974	0.0175086
495.616	0.0182633
505.258	0.0173546
514.901	0.0157041
524.543	0.0152859
534.185	0.0160441
543.828	0.0152817
553.47	0.0140159
563.112	0.0141288
572.755	0.0126454
582.397	0.0121932
592.039	0.0111431
601.682	0.0115466
611.324	0.0131062
620.966	0.0140088
630.609	0.0136267
640.251	0.0123704
649.893	0.0120109
659.536	0.0122183
669.178	0.0130003
678.82	0.0136132
688.463	0.0140788
698.105	0.0159108
707.747	0.0197479
717.39	0.0391134
727.032	0.0853758
736.674	0.0170691
746.317	0.0130803
755.959	0.0126645
765.601	0.012616
775.244	0.012857
784.886	0.0125589
794.528	0.0127073
804.171	0.013284
813.813	0.0146094
823.455	0.0167162
833.098	0.0198101
842.74	0.0330739
852.382	0.0492016
862.025	0.145447
871.667	0.252829
881.309	0.133264
890.952	0.0290285
900.594	0.0267025
910.236	0.0259447
919.879	0.0252595
929.521	0.024692
939.163	0.0237655
948.806	0.0240992
958.448	0.0255067
968.09	0.0255981
977.733	0.0267115
987.375	0.0296334
997.017	0.0324612
1006.66	0.0349386
1016.3	0.0358739
1025.94	0.0349408
1035.59	0.0340364
1045.23	0.033873
1054.87	0.0346582
1064.51	0.0352722
1074.16	0.0365142
1083.8	0.0382906
1093.44	0.0391737
1103.08	0.0383266
1112.72	0.0394585
1122.37	0.0411473
1132.01	0.0434117
1141.65	0.0459161
1151.3	0.0490926
1160.94	0.0520939
1170.58	0.0558062
1180.22	0.0594447
1189.86	0.0631832
1199.51	0.0669783
1209.15	0.0711295
1218.79	0.0766727
1228.43	0.0827433
1238.08	0.089754
1247.72	0.0982002
1257.36	0.107762
1267	0.118431
1276.64	0.131861
1286.29	0.145102
1295.93	0.161184
1305.57	0.179291
1315.21	0.201011
1324.86	0.226132
1334.5	0.255865
1344.14	0.291152
1353.78	0.331079
1363.43	0.376593
1373.07	0.426313
1382.71	0.477557
1392.35	0.521854
1401.99	0.547517
1411.64	0.549385
1421.28	0.513358
1430.92	0.463371
1440.57	0.421682
1450.21	0.385067
1459.85	0.345449
1469.49	0.308296
1479.13	0.274259
1488.78	0.240707
1498.42	0.203635
1508.06	0.169547
1517.7	0.139465
1527.35	0.111867
1536.99	0.0867913
1546.63	0.0638151
1556.27	0.0400741
1565.91	0.0259237
1575.56	0.0207328
1585.2	0.0188224
1594.84	0.0170799
1604.48	0.0149127
1614.13	0.012766
1623.77	0.0110675
1633.41	0.00957684
1643.05	0.00860969
1652.7	0.00750623
1662.34	0.00740299
1671.98	0.00644574
1681.62	0.00559709
1691.27	0.00503163
1700.91	0.00475228
1710.55	0.00449212
1720.19	0.00402741
1729.84	0.00360867
1739.48	0.00300337
1749.12	0.00317746
1758.76	0.00323351
1768.4	0.00413264
1778.05	0.00410449
1787.69	0.00580796
1797.33	0.00883136
1806.97	0.0120416
1816.62	0.00912814
1826.26	0.00493273
1835.9	0.00267791
1845.54	0.00208897
1855.18	0.00174324
1864.83	0.00121987
1874.47	0.00190932
1884.11	0.00103946
1893.75	0.00107058
1903.4	0.00133589
1913.04	0.001088
1922.68	0.000848071
1932.32	-0.00059555
1941.97	0.000281612
1951.61	-0.00057069
1961.25	0.00149498
1970.89	-0.00101983
1980.54	0.00249452
1990.18	0.00138298
1999.82	0.000210936
2009.46	-0.000250978
2019.11	-0.000154812
2028.75	-0.000685612
2038.39	0.00164293
2048.03	0.00149382
2057.67	0.00234104
2067.32	0.00135219
2076.96	0.00247408
2086.6	0.00221929
2096.24	0.00258914
2105.89	0.00300193
2115.53	0.00231475
2125.17	0.00264076
2134.81	0.00189578
2144.45	-0.000715672
2154.1	-0.000829763
2163.74	0.00661932
2173.38	0.00506805
2183.02	0.000297078
2192.67	0.00323034
2202.31	0.0014336
2211.95	0.00271252
2221.59	0.00371541
2231.24	0.00268747
2240.88	0.00468927
2250.52	0.00351877
2260.16	0.00410781
2269.8	0.00478946
2279.45	0.00532446
2289.09	0.00643603
2298.73	0.00618156
2308.38	0.00779359
2318.02	0.00609537
2327.66	0.00657889
2337.3	0.00652746
2346.94	0.0061655
2356.59	0.00702275
2366.23	0.00608054
2375.87	0.00572483
2385.51	0.00507157
2395.16	0.0061232
2404.8	0.00599181
2414.44	0.00511107
2424.08	0.00487685
2433.72	0.00578862
2443.37	0.00654882
2453.01	0.00661687
2462.65	0.00547881
2472.29	0.00675028
2481.94	0.00829534
2491.58	0.0090602
2501.22	0.0120786
2510.86	0.0132199
2520.51	0.0142879
2530.15	0.0118819
2539.79	0.0096886
2549.43	0.00923891
2559.07	0.00793604
2568.72	0.00801664
2578.36	0.00624652
2588	0.00653243
2597.64	0.00583557
2607.29	0.00710932
2616.93	0.00804583
2626.57	0.00678666
2636.21	0.00667929
2645.86	0.00665596
2655.5	0.00596302
2665.14	0.00481277
2674.78	0.00524202
2684.43	0.00448734
2694.07	0.00452399
2703.71	0.00477353
2713.35	0.00455969
2722.99	0.00481914
2732.64	0.00421365
2742.28	0.00338381
2751.92	0.0045131
2761.56	0.00412367
2771.21	0.00407924
2780.85	0.00480705
2790.49	0.00415685
2800.13	0.00466349
2809.78	0.0047859
2819.42	0.00485067
2829.06	0.0060783
2838.7	0.00627871
2848.34	0.00826758
2857.99	0.00870805
2867.63	0.00803234
2877.27	0.00864802
2886.91	0.00849568
2896.56	0.00891216
2906.2	0.00784242
2915.84	0.00888853
2925.48	0.0107978
2935.13	0.00862032
2944.77	0.00848264
2954.41	0.00797811
2964.05	0.0082418
2973.7	0.00826883
2983.34	0.00887361
2992.98	0.00883121
3002.62	0.00929705
3012.26	0.00877855
3021.91	0.00721073
3031.55	0.00903181
3041.19	0.00828391
3050.83	0.00804369
3060.48	0.00902286
3070.12	0.01028
3079.76	0.00984489
3089.4	0.01076
3099.05	0.0108558
3108.69	0.0112736
3118.33	0.0118936
3127.97	0.0122696
3137.61	0.012926
3147.26	0.0143603
3156.9	0.0154412
3166.54	0.0150485
3176.18	0.0133089
3185.83	0.0156304
3195.47	0.0143712
3205.11	0.0154488
3214.75	0.0151512
3224.4	0.0151342
3234.04	0.0171421
3243.68	0.0150515
3253.32	0.0160996
3262.97	0.0182939
3272.61	0.0163437
3282.25	0.0187915
3291.89	0.0160881
3301.53	0.0188821
3311.18	0.0178653
3320.82	0.0180193
3330.46	0.017398
3340.1	0.019873
3349.75	0.0175262
3359.39	0.0180709
3369.03	0.0173229
3378.67	0.0209949
3388.32	0.0188876
3397.96	0.0187614
3407.6	0.018205
3417.24	0.0177454
3426.89	0.0185969
3436.53	0.0184566
3446.17	0.0189957
3455.81	0.0181904
3465.45	0.0178916
3475.1	0.0177256
3484.74	0.0173814
3494.38	0.0164448
3504.02	0.0157631
3513.67	0.0162494
3523.31	0.0178364
3532.95	0.017058
3542.59	0.0169953
3552.24	0.0175977
3561.88	0.0170259
3571.52	0.0157836
3581.16	0.0132698
3590.8	0.0148269
3600.45	0.013559
3610.09	0.0155833
3619.73	0.0153905
3629.37	0.014174
3639.02	0.0131496
3648.66	0.0146852
3658.3	0.0122814
3667.94	0.0142612
3677.59	0.0126774
3687.23	0.0121995
3696.87	0.012649
3706.51	0.0125455
3716.16	0.015136
3725.8	0.012066
3735.44	0.01282
3745.08	0.013802
3754.72	0.0137573
3764.37	0.0122918
3774.01	0.0133916
3783.65	0.0157147
3793.29	0.0135289
3802.94	0.0139295
3812.58	0.0146286
3822.22	0.0178377
3831.86	0.0141163
3841.51	0.0171711
3851.15	0.0135702
3860.79	0.0141689
3870.43	0.0143631
3880.07	0.0131165
3889.72	0.0147389
3899.36	0.0123421
3909	0.0147924
3918.64	0.0133793
3928.29	0.0122247
3937.93	0.0131392
3947.57	0.016125
3957.21	0.0168762
3966.86	0.0177065
3976.5	0.0152227
3986.14	0.0152273
3995.78	0.0164961
