Measurement: Infrared, Infrared Data Processed
Mineral: Annabergite
Rruff sample: R050462
Ideal chemistry: Ni^2+^_3_(As^5+^O_4_)_2_8H_2_O
Locality: Plaka mine, Laurium, Attica, Greece
Source: University of Arizona Mineral Museum
Description: Green bladed crystals
Measured chemistry: (Ni_2.97_Zn_0.03_)_Σ=3_(As_1.00_O_4_)_2_·8H_2_O; lighter vein: (Ni_2.95_Zn_0.05_)_Σ=3_(As_1.00_O_4_)_2_·8H_2_O
x	intensity
374.123	0.286345
383.765	0.227089
393.407	0.221233
403.05	0.239561
412.692	0.271857
422.334	0.233079
431.976	0.170625
441.619	0.154376
451.261	0.205251
460.904	0.219412
470.546	0.183293
480.188	0.178064
489.83	0.19116
499.473	0.193938
509.115	0.167001
518.758	0.140944
528.4	0.148279
538.042	0.166059
547.684	0.178715
557.327	0.183408
566.969	0.182041
576.611	0.174097
586.254	0.156553
595.896	0.132993
605.538	0.111867
615.181	0.0971561
624.823	0.090436
634.466	0.0890867
644.108	0.0913546
653.75	0.0973415
663.393	0.107818
673.035	0.122528
682.677	0.139621
692.319	0.156656
701.962	0.168694
711.604	0.174443
721.246	0.173576
730.889	0.175382
740.531	0.182679
750.173	0.199492
759.816	0.231652
769.458	0.290855
779.101	0.37256
788.743	0.371841
798.385	0.298599
808.028	0.203212
817.67	0.214056
827.312	0.28672
836.955	0.2825
846.597	0.205277
856.239	0.136974
865.881	0.105048
875.524	0.108025
885.166	0.112825
894.808	0.113652
904.451	0.116669
914.093	0.123971
923.736	0.120927
933.378	0.101433
943.02	0.0737695
952.663	0.052676
962.305	0.0409318
971.947	0.0347436
981.59	0.0316043
991.232	0.0283313
1000.87	0.0243287
1010.52	0.0211148
1020.16	0.0194783
1029.8	0.017884
1039.44	0.0171387
1049.09	0.0168014
1058.73	0.0168027
1068.37	0.0164995
1078.01	0.0164152
1087.65	0.0160623
1097.3	0.0159607
1106.94	0.0161447
1116.58	0.0162494
1126.22	0.0162945
1135.87	0.0160101
1145.51	0.0160743
1155.15	0.0162316
1164.79	0.0164644
1174.44	0.0164684
1184.08	0.0165594
1193.72	0.0166499
1203.36	0.0163662
1213.01	0.0161883
1222.65	0.0159502
1232.29	0.0159503
1241.93	0.0159979
1251.58	0.0160285
1261.22	0.0160214
1270.86	0.0166303
1280.5	0.0177494
1290.14	0.0180892
1299.79	0.017355
1309.43	0.0171069
1319.07	0.0167871
1328.71	0.0166813
1338.36	0.0170121
1348	0.0172635
1357.64	0.0177172
1367.28	0.0186397
1376.92	0.0194814
1386.57	0.0208797
1396.21	0.0226011
1405.85	0.0236345
1415.49	0.0251382
1425.14	0.0266782
1434.78	0.0277932
1444.42	0.0279877
1454.06	0.0278642
1463.71	0.0273946
1473.35	0.0276069
1482.99	0.02724
1492.63	0.0274882
1502.28	0.0284591
1511.92	0.0297526
1521.56	0.033002
1531.2	0.0365774
1540.85	0.0430971
1550.49	0.0502159
1560.13	0.0620123
1569.77	0.0763679
1579.41	0.0923556
1589.06	0.097749
1598.7	0.0837969
1608.34	0.0652928
1617.98	0.0546659
1627.63	0.049431
1637.27	0.0465297
1646.91	0.043746
1656.55	0.0413702
1666.19	0.0406119
1675.84	0.0422643
1685.48	0.0431791
1695.12	0.0413717
1704.77	0.0374345
1714.41	0.0332426
1724.05	0.029409
1733.69	0.027209
1743.33	0.0240941
1752.98	0.0231745
1762.62	0.0224398
1772.26	0.0218353
1781.9	0.0208766
1791.55	0.0200912
1801.19	0.0187567
1810.83	0.0178558
1820.47	0.0167386
1830.12	0.016467
1839.76	0.0164019
1849.4	0.0162319
1859.04	0.0166513
1868.68	0.0171863
1878.33	0.0168205
1887.97	0.0175551
1897.61	0.0176677
1907.25	0.0185495
1916.9	0.0188913
1926.54	0.0193926
1936.18	0.0199392
1945.82	0.0188512
1955.46	0.0202264
1965.11	0.0208045
1974.75	0.0196145
1984.39	0.0220129
1994.04	0.0224195
2003.68	0.0213434
2013.32	0.0204588
2022.96	0.0213112
2032.6	0.018922
2042.25	0.0193848
2051.89	0.0218818
2061.53	0.0221889
2071.17	0.0229932
2080.82	0.0241903
2090.46	0.0251534
2100.1	0.0257751
2109.74	0.0272548
2119.39	0.0275055
2129.03	0.0268603
2138.67	0.0285317
2148.31	0.0292974
2157.95	0.0284486
2167.6	0.0350757
2177.24	0.0339233
2186.88	0.0359181
2196.52	0.0372376
2206.17	0.0396195
2215.81	0.0397914
2225.45	0.0415938
2235.09	0.0417494
2244.74	0.0413482
2254.38	0.0421142
2264.02	0.0418854
2273.66	0.0420273
2283.3	0.0418964
2292.95	0.0423965
2302.59	0.0425273
2312.23	0.0430482
2321.87	0.0445901
2331.52	0.0436093
2341.16	0.043542
2350.8	0.0430853
2360.44	0.044167
2370.09	0.0439577
2379.73	0.0441006
2389.37	0.0448177
2399.01	0.0457067
2408.66	0.0460422
2418.3	0.0463656
2427.94	0.0463939
2437.58	0.0471367
2447.22	0.0474911
2456.87	0.0470941
2466.51	0.0468943
2476.15	0.0474088
2485.79	0.0474788
2495.44	0.0482761
2505.08	0.0490558
2514.72	0.049696
2524.36	0.0508512
2534.01	0.0523088
2543.65	0.0530921
2553.29	0.0549557
2562.93	0.0559439
2572.57	0.057537
2582.22	0.0594527
2591.86	0.0609526
2601.5	0.0621308
2611.14	0.0643093
2620.79	0.066477
2630.43	0.0684633
2640.07	0.0709992
2649.71	0.073117
2659.36	0.0758364
2669	0.0786438
2678.64	0.080928
2688.28	0.0838873
2697.93	0.0870306
2707.57	0.0903522
2717.21	0.0936698
2726.85	0.0974229
2736.49	0.100811
2746.14	0.104909
2755.78	0.108447
2765.42	0.113086
2775.06	0.117497
2784.71	0.122457
2794.35	0.127454
2803.99	0.133337
2813.63	0.139158
2823.28	0.145199
2832.92	0.15246
2842.56	0.159689
2852.2	0.166694
2861.84	0.175921
2871.49	0.186304
2881.13	0.196911
2890.77	0.208147
2900.41	0.219184
2910.06	0.231405
2919.7	0.241799
2929.34	0.254762
2938.98	0.267353
2948.62	0.278759
2958.27	0.289054
2967.91	0.296301
2977.55	0.301253
2987.2	0.303627
2996.84	0.303649
3006.48	0.300896
3016.12	0.295223
3025.76	0.289903
3035.41	0.282668
3045.05	0.274644
3054.69	0.267687
3064.33	0.259856
3073.98	0.252757
3083.62	0.247391
3093.26	0.242555
3102.9	0.238963
3112.55	0.237535
3122.19	0.237905
3131.83	0.238898
3141.47	0.239198
3151.11	0.237397
3160.76	0.231645
3170.4	0.224484
3180.04	0.21665
3189.68	0.207885
3199.33	0.199188
3208.97	0.189908
3218.61	0.180631
3228.25	0.172077
3237.9	0.163406
3247.54	0.156893
3257.18	0.149026
3266.82	0.14318
3276.47	0.136829
3286.11	0.131596
3295.75	0.12682
3305.39	0.123353
3315.03	0.120037
3324.68	0.118334
3334.32	0.118092
3343.96	0.119111
3353.6	0.120842
3363.25	0.1226
3372.89	0.127896
3382.53	0.134584
3392.17	0.145471
3401.82	0.161217
3411.46	0.17977
3421.1	0.19489
3430.74	0.197314
3440.39	0.183906
3450.03	0.163571
3459.67	0.137564
3469.31	0.111477
3478.95	0.0918401
3488.6	0.076068
3498.24	0.062731
3507.88	0.0540591
3517.52	0.0466031
3527.17	0.039983
3536.81	0.0345744
3546.45	0.0318409
3556.09	0.0273554
3565.74	0.0246279
3575.38	0.0222365
3585.02	0.0195835
3594.66	0.0191798
3604.3	0.0160242
3613.95	0.0141621
3623.59	0.0127093
3633.23	0.00997382
3642.87	0.00920924
3652.52	0.00844099
3662.16	0.00681642
3671.8	0.00757901
3681.44	0.00465229
3691.09	0.00539322
3700.73	0.00586161
3710.37	0.00527375
3720.01	0.00403894
3729.66	0.00454021
3739.3	0.00370617
3748.94	0.00675852
3758.58	0.00507554
3768.22	0.00481004
3777.87	0.00593317
3787.51	0.0045379
3797.15	0.00494918
3806.79	0.00472038
3816.44	0.00540852
3826.08	0.00534537
3835.72	0.00530937
3845.36	0.00533921
3855.01	0.0069523
3864.65	0.00649052
3874.29	0.00588608
3883.93	0.00631157
3893.57	0.00527556
3903.22	0.0065592
3912.86	0.00475204
3922.5	0.00548673
3932.14	0.00582388
3941.79	0.00630609
3951.43	0.00494739
3961.07	0.0048252
3970.71	0.00608577
3980.36	0.00479923
3990	0.00603228
3999.64	0.0060567
