Measurement: Infrared, Infrared Data Processed
Mineral: Anorthite
Rruff sample: R040059
Ideal chemistry: CaAl_2_Si_2_O_8_
Locality: Miyakejima, Japan
Source: University of Arizona Mineral Museum
Description: Colorless fragments of crystals
Measured chemistry: (Ca_0.94_Na_0.04_Fe_0.02_)(Al_0.98_Si_0.02_)_2_Si_2.00_O_8_
x	intensity
399.193	0
408.835	0.0704629
418.477	0.0593416
428.12	0.0479546
437.762	0.0367412
447.404	0.0310249
457.047	0.0406564
466.689	0.0543378
476.331	0.0468924
485.974	0.0503489
495.616	0.0397921
505.258	0.0485192
514.901	0.0641823
524.543	0.0823461
534.185	0.108285
543.828	0.0994536
553.47	0.0905101
563.112	0.107561
572.755	0.100029
582.397	0.0925916
592.039	0.0839957
601.682	0.0866072
611.324	0.0771647
620.966	0.080439
630.609	0.0596258
640.251	0.0404241
649.893	0.0323056
659.536	0.0417333
669.178	0.046409
678.82	0.0430025
688.463	0.0381991
698.105	0.0326591
707.747	0.0283365
717.39	0.0350849
727.032	0.045421
736.674	0.040562
746.317	0.0403234
755.959	0.0481667
765.601	0.0376179
775.244	0.0304464
784.886	0.0225248
794.528	0.0225508
804.171	0.0252375
813.813	0.0305448
823.455	0.0371553
833.098	0.0459628
842.74	0.056398
852.382	0.0687464
862.025	0.0845476
871.667	0.102729
881.309	0.125172
890.952	0.147579
900.594	0.15806
910.236	0.161643
919.879	0.16155
929.521	0.153489
939.163	0.14062
948.806	0.128506
958.448	0.114945
968.09	0.102569
977.733	0.0910042
987.375	0.0910379
997.017	0.0877366
1006.66	0.0854222
1016.3	0.0874213
1025.94	0.0837385
1035.59	0.0775476
1045.23	0.0717921
1054.87	0.0674626
1064.51	0.0668456
1074.16	0.0682442
1083.8	0.0668014
1093.44	0.0677031
1103.08	0.0614994
1112.72	0.0568538
1122.37	0.0587861
1132.01	0.061742
1141.65	0.0605311
1151.3	0.0512279
1160.94	0.0390166
1170.58	0.0277611
1180.22	0.0178559
1189.86	0.00944711
1199.51	0.00492233
1209.15	0.00228232
1218.79	0.000798041
1228.43	-0.000158856
1238.08	-0.000336627
1247.72	-0.000726004
1257.36	-0.00115371
1267	-0.00146174
1276.64	-0.00138055
1286.29	-0.00115683
1295.93	-0.00102199
1305.57	-0.00110808
1315.21	-0.000907263
1324.86	-0.00113623
1334.5	-0.000673132
1344.14	-0.000879035
1353.78	-0.00064048
1363.43	-0.000557236
1373.07	-0.000592622
1382.71	-0.000862874
1392.35	-0.000506703
1401.99	-8.2895e-05
1411.64	0.000234597
1421.28	0.00113162
1430.92	0.0011816
1440.57	0.000997476
1450.21	0.00128614
1459.85	0.00178759
1469.49	0.000859488
1479.13	0.000899323
1488.78	0.000382693
1498.42	-0.000165684
1508.06	0.000667803
1517.7	4.29179e-05
1527.35	-4.26401e-05
1536.99	-0.00112295
1546.63	0.000588948
1556.27	-0.000608148
1565.91	0.00171457
1575.56	0.00102156
1585.2	0.00295461
1594.84	0.00348322
1604.48	0.00346975
1614.13	0.00309282
1623.77	0.00388345
1633.41	0.00232998
1643.05	0.00254101
1652.7	0.00036706
1662.34	0.00232091
1671.98	0.0027529
1681.62	0.00126529
1691.27	0.0012372
1700.91	0.00170105
1710.55	0.000433286
1720.19	-0.000668181
1729.84	-0.00156435
1739.48	-0.00294758
1749.12	-0.00231336
1758.76	-0.0020448
1768.4	-0.00140183
1778.05	-0.00141287
1787.69	-0.00190202
1797.33	-0.00159993
1806.97	-0.00176105
1816.62	-0.0023327
1826.26	-0.00130894
1835.9	-0.00218699
1845.54	-0.00194096
1855.18	-0.00291125
1864.83	-0.00308018
1874.47	-0.00307332
1884.11	-0.00290802
1893.75	-0.00308807
1903.4	-0.00387324
1913.04	-0.00424856
1922.68	-0.00436458
1932.32	-0.00482049
1941.97	-0.0050288
1951.61	-0.0045231
1961.25	-0.00593346
1970.89	-0.00687917
1980.54	-0.0064274
1990.18	-0.00627976
1999.82	-0.0068865
2009.46	-0.00568701
2019.11	-0.00608367
2028.75	-0.00632689
2038.39	-0.00709001
2048.03	-0.00465894
2057.67	-0.00477875
2067.32	-0.00328354
2076.96	-0.00452546
2086.6	-0.00269686
2096.24	-0.0031546
2105.89	-0.0041859
2115.53	-0.00359111
2125.17	-0.00467784
2134.81	-0.00521561
2144.45	-0.00405406
2154.1	-0.00843309
2163.74	-0.00445993
2173.38	-0.00678816
2183.02	-0.00462075
2192.67	-0.00239234
2202.31	-0.00344523
2211.95	-0.00450136
2221.59	-0.00322017
2231.24	-0.00157655
2240.88	-0.00282228
2250.52	-0.00266799
2260.16	-0.00221053
2269.8	-0.00272821
2279.45	-0.00120844
2289.09	-0.000790231
2298.73	-0.00128449
2308.38	-0.000126455
2318.02	0.000285217
2327.66	-0.000575608
2337.3	-0.000371994
2346.94	-0.000388455
2356.59	-0.000485333
2366.23	-0.000827251
2375.87	3.86067e-05
2385.51	-0.000544162
2395.16	-0.00067017
2404.8	0.000280142
2414.44	-0.000654386
2424.08	3.58137e-05
2433.72	-0.000698492
2443.37	-0.000888426
2453.01	0.00052463
2462.65	-4.0274e-05
2472.29	-0.000409267
2481.94	0.00055349
2491.58	0.000490005
2501.22	-0.000545303
2510.86	-0.000475312
2520.51	-0.000836106
2530.15	0.000712912
2539.79	-0.000763553
2549.43	0.000699225
2559.07	-0.000830188
2568.72	0.000207016
2578.36	0.000228159
2588	0.000122942
2597.64	0.000894642
2607.29	0.000403201
2616.93	0.000524401
2626.57	0.000281387
2636.21	0.000912309
2645.86	0.000364221
2655.5	0.000545249
2665.14	0.000376389
2674.78	0.000650505
2684.43	-0.0011105
2694.07	-0.00012125
2703.71	0.00014185
2713.35	-0.000999594
2722.99	-0.00022592
2732.64	-0.000442527
2742.28	-0.000168487
2751.92	1.94e-05
2761.56	0.000198623
2771.21	-0.000843095
2780.85	7.97518e-07
2790.49	-0.000322965
2800.13	0.000797854
2809.78	-0.000528768
2819.42	0.000663354
2829.06	0.000487851
2838.7	0.000211099
2848.34	0.000298425
2857.99	-0.000497477
2867.63	-0.000704439
2877.27	-0.000152127
2886.91	-0.00083191
2896.56	-0.000832481
2906.2	-0.000837732
2915.84	-0.00076572
2925.48	0.00113318
2935.13	-0.000281349
2944.77	-0.000826788
2954.41	-0.000664818
2964.05	-0.000798905
2973.7	-0.00118362
2983.34	0.00112641
2992.98	-0.000965596
3002.62	0.000138334
3012.26	-2.8922e-05
3021.91	-0.000252425
3031.55	-0.000802487
3041.19	0.000190479
3050.83	-0.000590351
3060.48	-0.00100246
3070.12	0.000589035
3079.76	-0.000198328
3089.4	-0.000440663
3099.05	-0.000164474
3108.69	-0.000356716
3118.33	0.000150532
3127.97	0.000201762
3137.61	0.000164918
3147.26	0.00089454
3156.9	0.00105591
3166.54	0.00057497
3176.18	-0.000141251
3185.83	0.00181883
3195.47	0.000644097
3205.11	0.000512679
3214.75	0.000153733
3224.4	0.00105204
3234.04	7.69141e-05
3243.68	-0.000727921
3253.32	-0.000373992
3262.97	0.00138845
3272.61	0.000314546
3282.25	0.000241597
3291.89	0.000110059
3301.53	0.000674535
3311.18	-5.61083e-05
3320.82	0.000509949
3330.46	0.00158811
3340.1	0.0020967
3349.75	0.00171033
3359.39	0.000704616
3369.03	-7.0554e-05
3378.67	0.00142893
3388.32	-0.000109595
3397.96	0.000559679
3407.6	0.00155635
3417.24	0.000209329
3426.89	0.000233826
3436.53	0.0018052
3446.17	0.00146932
3455.81	0.00166997
3465.45	-0.000210867
3475.1	0.00245386
3484.74	0.00172043
3494.38	-0.00162961
3504.02	-0.00308947
3513.67	-0.00126471
3523.31	-0.00117686
3532.95	-0.00139123
3542.59	-0.0048864
3552.24	-0.00208633
3561.88	-0.000186289
3571.52	-0.000383629
3581.16	-0.00120799
3590.8	-0.00113055
3600.45	0.000943911
3610.09	-0.00170655
3619.73	-0.0011995
3629.37	-0.00407447
3639.02	-0.00301605
3648.66	-0.00560819
3658.3	-0.00266167
3667.94	-0.00612636
3677.59	-0.00355862
3687.23	-0.00414853
3696.87	-0.00174985
3706.51	-0.00386897
3716.16	-0.00312372
3725.8	-0.0043231
3735.44	-0.00501995
3745.08	-0.00307989
3754.72	-0.00238335
3764.37	-0.00226138
3774.01	-0.00284729
3783.65	-0.00470125
3793.29	-0.002726
3802.94	-0.00314253
3812.58	-0.00796919
3822.22	-0.00247884
3831.86	-0.00250964
3841.51	-0.00261378
3851.15	-0.00604777
3860.79	-0.0045421
3870.43	-0.00164596
3880.07	-0.00713197
3889.72	-0.00253438
3899.36	-0.00362942
3909	-0.00346471
3918.64	-0.00268865
3928.29	-0.00329985
3937.93	-0.00376594
3947.57	-0.00443617
3957.21	-0.00225097
3966.86	-0.00252066
3976.5	-0.00560036
3986.14	-0.00203692
3995.78	-0.000791683
