Measurement: Infrared, Infrared Data Processed
Mineral: Antigorite
Rruff sample: R070228
Ideal chemistry: Mg_3_Si_2_O_5_(OH)_4_
Locality: Wood's Chrome Mine (Wood's Mine), Texas, Lancaster County, Pennsylvania, USA
Source: Michael Scott
Description: Compact massive, light to dark green associated with chromite
Measured chemistry: (Mg_2.93_Fe_0.07_)_Î£=3_Si_2.00_O_5_(OH)_4_ ; trace amounts of Al and Mn; OH estimated by difference
x	intensity
399.193	0.126921
408.835	0.124577
418.477	0.125607
428.12	0.139198
437.762	0.143422
447.404	0.143667
457.047	0.129275
466.689	0.111242
476.331	0.0944746
485.974	0.0836424
495.616	0.0727408
505.258	0.0668576
514.901	0.064537
524.543	0.0636899
534.185	0.0719403
543.828	0.0841471
553.47	0.0913538
563.112	0.0900236
572.755	0.0802004
582.397	0.0774547
592.039	0.08882
601.682	0.105359
611.324	0.117492
620.966	0.117768
630.609	0.108668
640.251	0.110552
649.893	0.106169
659.536	0.0986928
669.178	0.088854
678.82	0.0766733
688.463	0.0679338
698.105	0.0643537
707.747	0.0634784
717.39	0.0585475
727.032	0.0551127
736.674	0.0528714
746.317	0.0502862
755.959	0.0477417
765.601	0.0462687
775.244	0.0458221
784.886	0.0446215
794.528	0.0434601
804.171	0.0420727
813.813	0.0413213
823.455	0.0401655
833.098	0.0384654
842.74	0.0356145
852.382	0.0320513
862.025	0.0286398
871.667	0.0260096
881.309	0.0248092
890.952	0.0252939
900.594	0.026422
910.236	0.0295905
919.879	0.0358664
929.521	0.0483896
939.163	0.0713364
948.806	0.106877
958.448	0.136923
968.09	0.145526
977.733	0.147449
987.375	0.152332
997.017	0.136152
1006.66	0.115711
1016.3	0.0997395
1025.94	0.0847409
1035.59	0.0744017
1045.23	0.0585713
1054.87	0.0489255
1064.51	0.0505288
1074.16	0.0525726
1083.8	0.0448636
1093.44	0.032896
1103.08	0.0190609
1112.72	0.0134637
1122.37	0.0137129
1132.01	0.0116095
1141.65	0.00841028
1151.3	0.00702109
1160.94	0.00692312
1170.58	0.00638183
1180.22	0.00759444
1189.86	0.00803621
1199.51	0.00884152
1209.15	0.00760606
1218.79	0.00541029
1228.43	0.00390296
1238.08	0.00278766
1247.72	0.00219823
1257.36	0.00145233
1267	0.00082205
1276.64	0.000931613
1286.29	0.00101018
1295.93	0.00079182
1305.57	0.0007391
1315.21	0.000456214
1324.86	0.000539787
1334.5	0.000548816
1344.14	0.000512279
1353.78	0.000586828
1363.43	0.000730061
1373.07	0.00102143
1382.71	0.000838589
1392.35	0.000718241
1401.99	0.00101467
1411.64	0.000887353
1421.28	0.000921922
1430.92	0.000737777
1440.57	0.000782973
1450.21	0.000845695
1459.85	0.00077673
1469.49	0.00034079
1479.13	0.000323804
1488.78	0.000338215
1498.42	0.0009409
1508.06	0.000764805
1517.7	-1.93175e-05
1527.35	7.29978e-05
1536.99	9.93138e-05
1546.63	0.000517814
1556.27	0.000225972
1565.91	0.000305224
1575.56	0.000573618
1585.2	0.000622191
1594.84	0.000907895
1604.48	0.000930326
1614.13	0.000938191
1623.77	0.000824607
1633.41	0.00113519
1643.05	0.000975739
1652.7	0.00101951
1662.34	0.000418853
1671.98	1.91757e-05
1681.62	-0.000321146
1691.27	-0.000412656
1700.91	-0.000324545
1710.55	-0.000737844
1720.19	-0.000983488
1729.84	-0.00118181
1739.48	-0.00172101
1749.12	-0.00205051
1758.76	-0.00129397
1768.4	-0.000473239
1778.05	-0.00064728
1787.69	-0.00107357
1797.33	-0.00172548
1806.97	-0.00189365
1816.62	-0.00250935
1826.26	-0.00187278
1835.9	-0.00203991
1845.54	-0.00201873
1855.18	-0.00225243
1864.83	-0.00216345
1874.47	-0.00258651
1884.11	-0.00259347
1893.75	-0.00283509
1903.4	-0.00350948
1913.04	-0.00339312
1922.68	-0.00377481
1932.32	-0.00438782
1941.97	-0.00355988
1951.61	-0.00284392
1961.25	-0.00369732
1970.89	-0.00482152
1980.54	-0.00397705
1990.18	-0.00353484
1999.82	-0.00321306
2009.46	-0.00275043
2019.11	-0.0035169
2028.75	-0.00375759
2038.39	-0.00368268
2048.03	-0.00277343
2057.67	-0.00325982
2067.32	-0.00276992
2076.96	-0.0027963
2086.6	-0.00312829
2096.24	-0.00250776
2105.89	-0.00225701
2115.53	-0.00240662
2125.17	-0.00278525
2134.81	-0.00401038
2144.45	-0.00333155
2154.1	-0.00184451
2163.74	-0.00199221
2173.38	-0.00158848
2183.02	-0.00176014
2192.67	-0.0019126
2202.31	-0.00192728
2211.95	-0.00154784
2221.59	-0.000962186
2231.24	-0.00105479
2240.88	-0.000546642
2250.52	-0.00130939
2260.16	-0.00148169
2269.8	-0.00121955
2279.45	-0.00157879
2289.09	-0.00159735
2298.73	-0.00164589
2308.38	-0.00203309
2318.02	-0.00157126
2327.66	-0.0021361
2337.3	-0.00185971
2346.94	-0.00228109
2356.59	-0.00132701
2366.23	-0.00169525
2375.87	-0.00288259
2385.51	-0.00259976
2395.16	-0.00285771
2404.8	-0.00271908
2414.44	-0.00283325
2424.08	-0.00314773
2433.72	-0.00332037
2443.37	-0.00334986
2453.01	-0.00264949
2462.65	-0.00284728
2472.29	-0.00299604
2481.94	-0.00274506
2491.58	-0.00302834
2501.22	-0.00295819
2510.86	-0.00286018
2520.51	-0.00233064
2530.15	-0.00332575
2539.79	-0.00336453
2549.43	-0.00348578
2559.07	-0.00289253
2568.72	-0.00313601
2578.36	-0.00261148
2588	-0.00253092
2597.64	-0.00290244
2607.29	-0.00306167
2616.93	-0.00268199
2626.57	-0.00310759
2636.21	-0.00278315
2645.86	-0.00273212
2655.5	-0.00283415
2665.14	-0.003045
2674.78	-0.00281035
2684.43	-0.00306686
2694.07	-0.00299818
2703.71	-0.00325389
2713.35	-0.00303004
2722.99	-0.00313349
2732.64	-0.00298094
2742.28	-0.00283491
2751.92	-0.00303579
2761.56	-0.00256744
2771.21	-0.00300758
2780.85	-0.00278254
2790.49	-0.00270601
2800.13	-0.00211478
2809.78	-0.0021319
2819.42	-0.00228755
2829.06	-0.00265608
2838.7	-0.00169373
2848.34	-0.00300502
2857.99	-0.00355709
2867.63	-0.00219871
2877.27	-0.00160258
2886.91	-0.00194195
2896.56	-0.00235291
2906.2	-0.00129458
2915.84	-0.00233969
2925.48	-0.00307003
2935.13	-0.00303704
2944.77	-0.00233952
2954.41	-0.00157686
2964.05	-0.00146878
2973.7	-0.00229778
2983.34	-0.00203234
2992.98	-0.00300624
3002.62	-0.00255039
3012.26	-0.00189615
3021.91	-0.00182019
3031.55	-0.00188123
3041.19	-0.00208105
3050.83	-0.00190642
3060.48	-0.00169761
3070.12	-0.00165404
3079.76	-0.000837689
3089.4	-0.00159983
3099.05	-0.000865614
3108.69	-0.00116066
3118.33	-0.00111765
3127.97	-0.00114631
3137.61	-0.000817256
3147.26	-0.000758534
3156.9	-0.000292689
3166.54	0.000178695
3176.18	0.00013689
3185.83	-0.000138561
3195.47	0.000406091
3205.11	0.000608696
3214.75	0.000427635
3224.4	0.000792596
3234.04	0.000958118
3243.68	0.000642313
3253.32	0.000931399
3262.97	0.00139084
3272.61	0.0016055
3282.25	0.0018248
3291.89	0.00160386
3301.53	0.00182199
3311.18	0.00137674
3320.82	0.00212135
3330.46	0.00285052
3340.1	0.00316892
3349.75	0.00250814
3359.39	0.00213773
3369.03	0.00246627
3378.67	0.00255955
3388.32	0.00354299
3397.96	0.00267358
3407.6	0.003387
3417.24	0.00312774
3426.89	0.00289682
3436.53	0.0028203
3446.17	0.00223172
3455.81	0.00193098
3465.45	0.00324344
3475.1	0.00249129
3484.74	0.00324942
3494.38	0.0030072
3504.02	0.0036779
3513.67	0.00250289
3523.31	0.00297648
3532.95	0.00257181
3542.59	0.00424542
3552.24	0.00312541
3561.88	0.00292907
3571.52	0.00383606
3581.16	0.00321337
3590.8	0.00324787
3600.45	0.00542591
3610.09	0.00675773
3619.73	0.0102056
3629.37	0.0120759
3639.02	0.0179451
3648.66	0.0248758
3658.3	0.0376327
3667.94	0.0504122
3677.59	0.0401769
3687.23	0.0158818
3696.87	0.00956598
3706.51	-0.00155965
3716.16	-0.00394848
3725.8	-0.00566945
3735.44	-0.00643396
3745.08	-0.00518643
3754.72	-0.00683752
3764.37	-0.00617926
3774.01	-0.0058871
3783.65	-0.00712736
3793.29	-0.00561278
3802.94	-0.0057217
3812.58	-0.00539523
3822.22	-0.00561293
3831.86	-0.00530763
3841.51	-0.00553725
3851.15	-0.00504126
3860.79	-0.00533897
3870.43	-0.00568648
3880.07	-0.00659288
3889.72	-0.00574264
3899.36	-0.00598095
3909	-0.00663311
3918.64	-0.00553219
3928.29	-0.00573769
3937.93	-0.00585074
3947.57	-0.00557345
3957.21	-0.00490798
3966.86	-0.0059566
3976.5	-0.00618127
3986.14	-0.0054421
3995.78	-0.00604827
