Measurement: Infrared, Infrared Data Processed
Mineral: Antimony
Rruff sample: R050654
Ideal chemistry: Sb
Locality: Sarawak, Borneo
Source: University of Arizona Mineral Museum
Description: Silver metallic crystals
Measured chemistry: Sb
x	intensity
395.336	0.135976
404.978	0.136747
414.62	0.140463
424.263	0.142771
433.905	0.146637
443.547	0.147714
453.19	0.148974
462.832	0.151084
472.474	0.153455
482.117	0.154
491.759	0.156615
501.401	0.158345
511.044	0.160508
520.686	0.162279
530.328	0.165219
539.971	0.166607
549.613	0.169628
559.255	0.172434
568.898	0.174391
578.54	0.176603
588.182	0.179084
597.825	0.18079
607.467	0.183542
617.109	0.185535
626.752	0.1873
636.394	0.189468
646.036	0.191819
655.679	0.193075
665.321	0.19563
674.963	0.197531
684.606	0.199346
694.248	0.200825
703.89	0.201243
713.533	0.203397
723.175	0.205165
732.817	0.206589
742.46	0.208102
752.102	0.209896
761.744	0.211058
771.387	0.212667
781.029	0.212209
790.671	0.214032
800.314	0.213152
809.956	0.212682
819.598	0.216079
829.241	0.219358
838.883	0.22187
848.525	0.224513
858.168	0.227954
867.81	0.230229
877.452	0.233134
887.095	0.235427
896.737	0.23777
906.379	0.240326
916.022	0.242728
925.664	0.245098
935.306	0.247057
944.949	0.249041
954.591	0.251114
964.233	0.25343
973.876	0.255387
983.518	0.257509
993.16	0.259375
1002.8	0.261274
1012.45	0.2633
1022.09	0.265227
1031.73	0.267221
1041.37	0.26832
1051.01	0.269027
1060.66	0.269181
1070.3	0.269061
1079.94	0.270284
1089.58	0.270121
1099.23	0.269668
1108.87	0.269128
1118.51	0.268875
1128.15	0.269096
1137.8	0.270383
1147.44	0.271284
1157.08	0.271249
1166.72	0.272085
1176.37	0.271174
1186.01	0.271081
1195.65	0.270937
1205.29	0.271442
1214.93	0.272027
1224.58	0.273497
1234.22	0.274882
1243.86	0.276698
1253.5	0.27784
1263.15	0.279349
1272.79	0.281166
1282.43	0.282755
1292.07	0.283957
1301.71	0.285509
1311.36	0.286936
1321	0.288293
1330.64	0.289103
1340.28	0.290339
1349.93	0.291748
1359.57	0.293084
1369.21	0.294009
1378.85	0.294726
1388.5	0.29618
1398.14	0.297201
1407.78	0.298359
1417.42	0.299754
1427.07	0.300717
1436.71	0.302059
1446.35	0.303585
1455.99	0.305111
1465.63	0.306166
1475.28	0.307253
1484.92	0.308904
1494.56	0.310329
1504.2	0.31175
1513.85	0.31311
1523.49	0.314199
1533.13	0.315384
1542.77	0.316546
1552.42	0.317655
1562.06	0.318864
1571.7	0.320217
1581.34	0.32149
1590.98	0.322425
1600.63	0.323236
1610.27	0.32408
1619.91	0.325196
1629.55	0.325859
1639.2	0.326501
1648.84	0.327889
1658.48	0.328646
1668.12	0.329677
1677.77	0.330631
1687.41	0.331538
1697.05	0.332432
1706.69	0.333678
1716.34	0.335173
1725.98	0.336358
1735.62	0.337461
1745.26	0.338709
1754.9	0.339625
1764.55	0.340579
1774.19	0.341112
1783.83	0.341828
1793.47	0.343001
1803.12	0.343241
1812.76	0.344017
1822.4	0.344476
1832.04	0.345733
1841.69	0.346091
1851.33	0.347259
1860.97	0.347326
1870.61	0.348083
1880.26	0.347993
1889.9	0.349479
1899.54	0.350117
1909.18	0.351024
1918.82	0.351731
1928.47	0.352139
1938.11	0.352789
1947.75	0.353583
1957.39	0.354416
1967.04	0.352577
1976.68	0.355992
1986.32	0.356573
1995.96	0.357708
2005.61	0.356525
2015.25	0.35901
2024.89	0.359926
2034.53	0.359976
2044.17	0.362065
2053.82	0.363602
2063.46	0.362584
2073.1	0.364553
2082.74	0.365723
2092.39	0.368192
2102.03	0.368425
2111.67	0.36848
2121.31	0.370508
2130.96	0.375243
2140.6	0.373476
2150.24	0.373306
2159.88	0.373718
2169.53	0.374819
2179.17	0.375297
2188.81	0.374463
2198.45	0.377661
2208.09	0.376995
2217.74	0.378172
2227.38	0.378983
2237.02	0.381272
2246.66	0.381265
2256.31	0.381181
2265.95	0.381452
2275.59	0.384478
2285.23	0.383857
2294.88	0.384977
2304.52	0.386377
2314.16	0.386395
2323.8	0.38764
2333.45	0.389503
2343.09	0.390784
2352.73	0.39079
2362.37	0.39224
2372.01	0.392539
2381.66	0.392031
2391.3	0.39333
2400.94	0.393472
2410.58	0.394073
2420.23	0.394072
2429.87	0.39553
2439.51	0.395062
2449.15	0.395485
2458.8	0.397025
2468.44	0.397964
2478.08	0.398265
2487.72	0.398639
2497.36	0.399778
2507.01	0.400191
2516.65	0.400809
2526.29	0.401719
2535.93	0.401667
2545.58	0.402414
2555.22	0.403155
2564.86	0.403552
2574.5	0.404665
2584.14	0.40508
2593.79	0.406009
2603.43	0.406786
2613.07	0.408212
2622.72	0.408992
2632.36	0.410513
2642	0.411029
2651.64	0.412907
2661.28	0.413843
2670.93	0.414625
2680.57	0.41555
2690.21	0.416567
2699.85	0.417124
2709.5	0.417722
2719.14	0.417769
2728.78	0.419076
2738.42	0.419694
2748.07	0.419967
2757.71	0.419849
2767.35	0.420741
2776.99	0.421545
2786.63	0.421695
2796.28	0.422928
2805.92	0.423079
2815.56	0.423846
2825.2	0.424195
2834.85	0.424786
2844.49	0.425722
2854.13	0.42551
2863.77	0.426273
2873.41	0.426928
2883.06	0.427433
2892.7	0.427792
2902.34	0.428343
2911.99	0.429101
2921.63	0.428919
2931.27	0.428542
2940.91	0.428914
2950.55	0.430275
2960.2	0.428615
2969.84	0.428328
2979.48	0.428981
2989.12	0.429812
2998.77	0.430766
3008.41	0.430585
3018.05	0.43196
3027.69	0.431557
3037.34	0.431804
3046.98	0.43248
3056.62	0.432488
3066.26	0.433294
3075.9	0.433367
3085.55	0.433886
3095.19	0.434705
3104.83	0.434342
3114.47	0.434738
3124.12	0.435983
3133.76	0.435997
3143.4	0.436388
3153.04	0.436385
3162.68	0.437751
3172.33	0.437272
3181.97	0.438165
3191.61	0.438158
3201.26	0.438757
3210.9	0.439748
3220.54	0.43971
3230.18	0.43953
3239.82	0.440512
3249.47	0.441521
3259.11	0.442124
3268.75	0.442186
3278.39	0.4429
3288.04	0.442969
3297.68	0.443536
3307.32	0.443823
3316.96	0.444759
3326.61	0.44507
3336.25	0.445239
3345.89	0.445174
3355.53	0.445743
3365.17	0.444811
3374.82	0.447312
3384.46	0.445857
3394.1	0.447049
3403.74	0.446749
3413.39	0.44748
3423.03	0.447046
3432.67	0.448018
3442.31	0.448295
3451.95	0.450117
3461.6	0.449082
3471.24	0.450865
3480.88	0.449693
3490.53	0.449755
3500.17	0.451464
3509.81	0.45162
3519.45	0.45124
3529.09	0.452574
3538.74	0.451956
3548.38	0.453128
3558.02	0.453446
3567.66	0.454117
3577.31	0.45382
3586.95	0.454099
3596.59	0.455288
3606.23	0.454576
3615.88	0.454731
3625.52	0.456957
3635.16	0.45645
3644.8	0.457455
3654.44	0.456412
3664.09	0.457656
3673.73	0.458456
3683.37	0.458504
3693.01	0.458498
3702.66	0.459917
3712.3	0.458626
3721.94	0.459916
3731.58	0.460596
3741.22	0.46073
3750.87	0.46187
3760.51	0.461833
3770.15	0.462923
3779.8	0.463733
3789.44	0.462319
3799.08	0.462978
3808.72	0.464275
3818.36	0.463988
3828.01	0.464703
3837.65	0.465461
3847.29	0.465982
3856.93	0.466289
3866.58	0.465155
3876.22	0.466099
3885.86	0.466954
3895.5	0.466125
3905.14	0.46675
3914.79	0.46772
3924.43	0.467523
3934.07	0.467481
3943.71	0.467958
3953.36	0.468452
3963	0.46789
3972.64	0.468487
3982.28	0.468923
3991.93	0.469138
