Measurement: Infrared, Infrared Data Processed
Mineral: Antimony
Rruff sample: R050654
Ideal chemistry: Sb
Locality: Sarawak, Borneo
Source: University of Arizona Mineral Museum
Description: Silver metallic crystals
Measured chemistry: Sb
x	intensity
399.193	0.298832
408.835	0.358092
418.477	0.350414
428.12	0.341738
437.762	0.351202
447.404	0.34625
457.047	0.354277
466.689	0.365337
476.331	0.376389
485.974	0.390049
495.616	0.396307
505.258	0.405415
514.901	0.412196
524.543	0.419118
534.185	0.428493
543.828	0.438748
553.47	0.451273
563.112	0.461603
572.755	0.467779
582.397	0.476943
592.039	0.482453
601.682	0.491767
611.324	0.499312
620.966	0.510169
630.609	0.518285
640.251	0.527833
649.893	0.537225
659.536	0.546395
669.178	0.555283
678.82	0.561619
688.463	0.567849
698.105	0.571109
707.747	0.582942
717.39	0.590102
727.032	0.598926
736.674	0.608379
746.317	0.615714
755.959	0.628347
765.601	0.639846
775.244	0.644015
784.886	0.648321
794.528	0.654281
804.171	0.653612
813.813	0.671003
823.455	0.686057
833.098	0.699893
842.74	0.710893
852.382	0.721325
862.025	0.730646
871.667	0.739374
881.309	0.748801
890.952	0.757241
900.594	0.766577
910.236	0.771603
919.879	0.782372
929.521	0.789533
939.163	0.797571
948.806	0.80449
958.448	0.811947
968.09	0.818535
977.733	0.824308
987.375	0.828805
997.017	0.837417
1006.66	0.840216
1016.3	0.846424
1025.94	0.848633
1035.59	0.850692
1045.23	0.851675
1054.87	0.845024
1064.51	0.832724
1074.16	0.822978
1083.8	0.823916
1093.44	0.824175
1103.08	0.827548
1112.72	0.830483
1122.37	0.836758
1132.01	0.843413
1141.65	0.85224
1151.3	0.858306
1160.94	0.865324
1170.58	0.862255
1180.22	0.862895
1189.86	0.866758
1199.51	0.871899
1209.15	0.878954
1218.79	0.88501
1228.43	0.890926
1238.08	0.898559
1247.72	0.903785
1257.36	0.909453
1267	0.916029
1276.64	0.920679
1286.29	0.928403
1295.93	0.933351
1305.57	0.938952
1315.21	0.944618
1324.86	0.950058
1334.5	0.956615
1344.14	0.961472
1353.78	0.966615
1363.43	0.971152
1373.07	0.976416
1382.71	0.981826
1392.35	0.986103
1401.99	0.991622
1411.64	0.997504
1421.28	1.00152
1430.92	1.00652
1440.57	1.01059
1450.21	1.01491
1459.85	1.02143
1469.49	1.02404
1479.13	1.0306
1488.78	1.03549
1498.42	1.0406
1508.06	1.04458
1517.7	1.05071
1527.35	1.05267
1536.99	1.05769
1546.63	1.06147
1556.27	1.06364
1565.91	1.06902
1575.56	1.07313
1585.2	1.07687
1594.84	1.08224
1604.48	1.08399
1614.13	1.09045
1623.77	1.0915
1633.41	1.09372
1643.05	1.09807
1652.7	1.1008
1662.34	1.10675
1671.98	1.11001
1681.62	1.1118
1691.27	1.11589
1700.91	1.11749
1710.55	1.1219
1720.19	1.12473
1729.84	1.1286
1739.48	1.12804
1749.12	1.13177
1758.76	1.13861
1768.4	1.14273
1778.05	1.14785
1787.69	1.15018
1797.33	1.15278
1806.97	1.15634
1816.62	1.15759
1826.26	1.16104
1835.9	1.16575
1845.54	1.16795
1855.18	1.17217
1864.83	1.17187
1874.47	1.17725
1884.11	1.17675
1893.75	1.18029
1903.4	1.18337
1913.04	1.17871
1922.68	1.18163
1932.32	1.17987
1941.97	1.18127
1951.61	1.18887
1961.25	1.18027
1970.89	1.17664
1980.54	1.18403
1990.18	1.19722
1999.82	1.19208
2009.46	1.18723
2019.11	1.19889
2028.75	1.1888
2038.39	1.20495
2048.03	1.21141
2057.67	1.21763
2067.32	1.22618
2076.96	1.2249
2086.6	1.22837
2096.24	1.23205
2105.89	1.24001
2115.53	1.24628
2125.17	1.24261
2134.81	1.24436
2144.45	1.23061
2154.1	1.22629
2163.74	1.23742
2173.38	1.23723
2183.02	1.2586
2192.67	1.25677
2202.31	1.25332
2211.95	1.26247
2221.59	1.26404
2231.24	1.26714
2240.88	1.26896
2250.52	1.27263
2260.16	1.28048
2269.8	1.28083
2279.45	1.28712
2289.09	1.2874
2298.73	1.29288
2308.38	1.29661
2318.02	1.30214
2327.66	1.30166
2337.3	1.30764
2346.94	1.3098
2356.59	1.31132
2366.23	1.31117
2375.87	1.31387
2385.51	1.31369
2395.16	1.31401
2404.8	1.31842
2414.44	1.3196
2424.08	1.32283
2433.72	1.32225
2443.37	1.32761
2453.01	1.32623
2462.65	1.32923
2472.29	1.33235
2481.94	1.33418
2491.58	1.33598
2501.22	1.33295
2510.86	1.34049
2520.51	1.34543
2530.15	1.33968
2539.79	1.34717
2549.43	1.34301
2559.07	1.34878
2568.72	1.34922
2578.36	1.35201
2588	1.35427
2597.64	1.35356
2607.29	1.357
2616.93	1.36121
2626.57	1.36261
2636.21	1.36575
2645.86	1.36954
2655.5	1.37284
2665.14	1.37313
2674.78	1.37675
2684.43	1.37876
2694.07	1.37936
2703.71	1.38472
2713.35	1.38537
2722.99	1.38787
2732.64	1.3885
2742.28	1.3883
2751.92	1.39125
2761.56	1.39253
2771.21	1.39503
2780.85	1.39471
2790.49	1.39578
2800.13	1.40093
2809.78	1.40158
2819.42	1.40314
2829.06	1.40754
2838.7	1.4117
2848.34	1.40993
2857.99	1.40522
2867.63	1.40663
2877.27	1.40877
2886.91	1.41262
2896.56	1.41432
2906.2	1.416
2915.84	1.41876
2925.48	1.40904
2935.13	1.40091
2944.77	1.4121
2954.41	1.4118
2964.05	1.4076
2973.7	1.40928
2983.34	1.41337
2992.98	1.41478
3002.62	1.41969
3012.26	1.4157
3021.91	1.42134
3031.55	1.42686
3041.19	1.42543
3050.83	1.42554
3060.48	1.42389
3070.12	1.43123
3079.76	1.43052
3089.4	1.43003
3099.05	1.43297
3108.69	1.43684
3118.33	1.43195
3127.97	1.43342
3137.61	1.43793
3147.26	1.43521
3156.9	1.43497
3166.54	1.44157
3176.18	1.43775
3185.83	1.44584
3195.47	1.44438
3205.11	1.44656
3214.75	1.44108
3224.4	1.44321
3234.04	1.44698
3243.68	1.44895
3253.32	1.45146
3262.97	1.44744
3272.61	1.44878
3282.25	1.45775
3291.89	1.45566
3301.53	1.45614
3311.18	1.45947
3320.82	1.45789
3330.46	1.45372
3340.1	1.46198
3349.75	1.46385
3359.39	1.46023
3369.03	1.45884
3378.67	1.45603
3388.32	1.457
3397.96	1.46238
3407.6	1.46659
3417.24	1.46486
3426.89	1.46768
3436.53	1.4607
3446.17	1.46575
3455.81	1.46698
3465.45	1.46713
3475.1	1.46758
3484.74	1.46018
3494.38	1.46933
3504.02	1.47196
3513.67	1.47187
3523.31	1.4757
3532.95	1.47228
3542.59	1.47312
3552.24	1.47124
3561.88	1.47361
3571.52	1.47581
3581.16	1.47379
3590.8	1.47284
3600.45	1.47155
3610.09	1.4751
3619.73	1.48456
3629.37	1.47441
3639.02	1.47483
3648.66	1.47856
3658.3	1.47978
3667.94	1.47882
3677.59	1.48011
3687.23	1.47737
3696.87	1.48857
3706.51	1.48087
3716.16	1.48605
3725.8	1.48938
3735.44	1.48086
3745.08	1.49017
3754.72	1.49025
3764.37	1.49508
3774.01	1.49578
3783.65	1.5005
3793.29	1.50114
3802.94	1.50479
3812.58	1.49371
3822.22	1.49967
3831.86	1.49465
3841.51	1.50212
3851.15	1.50888
3860.79	1.50156
3870.43	1.50499
3880.07	1.50577
3889.72	1.51011
3899.36	1.49946
3909	1.50826
3918.64	1.50867
3928.29	1.50589
3937.93	1.50694
3947.57	1.51374
3957.21	1.5068
3966.86	1.50793
3976.5	1.51225
3986.14	1.51383
3995.78	1.5101
