Measurement: Infrared, Infrared Data Processed
Mineral: Antlerite
Rruff sample: R050212
Ideal chemistry: Cu^2+^_3_(S^6+^O_4_)(OH)_4_
Locality: Chuquicamata mine, Calama, Antofagasta Province, Chile
Source: John Dagenais
Description: Deep green tabular crystals
Measured chemistry: Cu_3.00_S_1.00_O_4_(OH)_4_
x	intensity
50.1401	0.00306805
52.0686	0.00769309
53.9971	0.00797422
55.9255	0.0124246
57.854	0.0184335
59.7825	0.015997
61.7109	0.00798875
63.6394	0.00793464
65.5679	0.0113917
67.4963	0.0113169
69.4248	0.0107894
71.3533	0.0127154
73.2817	0.0154135
75.2102	0.016587
77.1387	0.0176614
79.0671	0.0199451
80.9956	0.0215915
82.9241	0.0228041
84.8525	0.0234849
86.781	0.0226162
88.7095	0.0231371
90.6379	0.0242361
92.5664	0.0244009
94.4948	0.0245039
96.4233	0.0274577
98.3518	0.0305482
100.28	0.0292438
102.209	0.0272221
104.137	0.0282211
106.066	0.0308731
107.994	0.0335111
109.923	0.0363813
111.851	0.0373448
113.779	0.0350968
115.708	0.0334518
117.636	0.0328669
119.565	0.030716
121.493	0.0284998
123.422	0.0276781
125.35	0.0282573
127.279	0.0300615
129.207	0.031729
131.136	0.0332484
133.064	0.0356465
134.993	0.0380738
136.921	0.0413327
138.85	0.0417235
140.778	0.0383856
142.707	0.0366233
144.635	0.0378929
146.563	0.0407246
148.492	0.0441134
150.42	0.047351
152.349	0.0493321
154.277	0.0499919
156.206	0.0473772
158.134	0.0413652
160.063	0.034358
161.991	0.0294217
163.92	0.0293321
165.848	0.0335533
167.777	0.0387446
169.705	0.0444691
171.633	0.0498935
173.562	0.0530146
175.49	0.0547635
177.419	0.0550673
179.347	0.0538389
181.276	0.050723
183.204	0.0470453
185.133	0.0438223
187.061	0.0408996
188.99	0.0378784
190.918	0.0341791
192.847	0.0295375
194.775	0.0248419
196.704	0.0215224
198.632	0.0198228
200.56	0.0193449
202.489	0.0195938
204.417	0.020429
206.346	0.0219035
208.274	0.0241537
210.203	0.026806
212.131	0.0302825
214.06	0.0357332
215.988	0.0424924
217.917	0.0481105
219.845	0.0498712
221.774	0.0473572
223.702	0.0419145
225.631	0.035581
227.559	0.0301367
229.488	0.0271744
231.416	0.0264699
233.344	0.0270009
235.273	0.0282463
237.201	0.0301958
239.13	0.0329052
241.058	0.0358723
242.987	0.0374919
244.915	0.0367506
246.844	0.0348266
248.772	0.0341031
250.701	0.0350029
252.629	0.0363059
254.558	0.0375973
256.486	0.0376767
258.414	0.0367425
260.343	0.0356752
262.271	0.034689
264.2	0.0331893
266.128	0.0309563
268.057	0.0288669
269.985	0.0275776
271.914	0.0270675
273.842	0.0271872
275.771	0.0272223
277.699	0.0273354
279.628	0.0274601
281.556	0.0276053
283.485	0.027872
285.413	0.0283598
287.341	0.0290887
289.27	0.0297184
291.198	0.0299722
293.127	0.0304979
295.055	0.0312429
296.984	0.0319805
298.912	0.0329703
300.841	0.0339771
302.769	0.0351
304.698	0.0362531
306.626	0.0372934
308.555	0.0387932
310.483	0.0404413
312.411	0.0422529
314.34	0.0440301
316.269	0.0456643
318.197	0.0468012
320.125	0.0481089
322.054	0.0498377
323.982	0.0522115
325.911	0.0553676
327.839	0.0590144
329.768	0.0624827
331.696	0.0650238
333.625	0.0662615
335.553	0.0654917
337.482	0.0624864
339.41	0.0577829
341.339	0.0523458
343.267	0.0467383
345.195	0.0423048
347.124	0.0397288
349.052	0.038213
350.981	0.0378354
352.909	0.0388077
354.838	0.0405438
356.766	0.0430018
358.695	0.0463591
360.623	0.0499329
362.552	0.0535706
364.48	0.0567183
366.409	0.0590461
368.337	0.0604647
370.265	0.0600169
372.194	0.0568901
374.122	0.0516256
376.051	0.0458424
377.979	0.040787
379.908	0.037347
381.836	0.0353747
383.765	0.0344252
385.693	0.0341028
387.622	0.0343852
389.55	0.0352311
391.479	0.0361116
393.407	0.0369451
395.336	0.0382687
397.264	0.0402325
399.192	0.0422966
401.121	0.0445074
403.049	0.0472287
404.978	0.0506871
406.906	0.0542922
408.835	0.0575931
410.763	0.0611211
412.692	0.0644313
414.62	0.0664691
416.549	0.067129
418.477	0.0659791
420.406	0.0634958
422.334	0.0602392
424.262	0.05629
426.191	0.0517228
428.12	0.0481275
430.048	0.045949
431.976	0.0444915
433.905	0.0435217
435.833	0.043543
437.762	0.0436613
439.69	0.0435565
441.619	0.0434988
443.547	0.043966
445.476	0.0448008
447.404	0.0464095
449.333	0.0486569
451.261	0.0512455
453.19	0.0542032
455.118	0.0567805
457.046	0.0585616
458.975	0.0591245
460.903	0.0577216
462.832	0.0553448
464.76	0.0539134
466.689	0.053782
468.617	0.0545474
470.546	0.0560379
472.474	0.0581031
474.403	0.0606429
476.331	0.0636294
478.26	0.067048
480.188	0.0710568
482.116	0.0757021
484.045	0.079197
485.974	0.0818958
487.902	0.0836461
489.83	0.0840159
491.759	0.0834294
493.687	0.0820781
495.616	0.0801833
497.544	0.07766
499.473	0.0746992
501.401	0.0711379
503.33	0.0673542
505.258	0.0645961
507.187	0.0630627
509.115	0.063074
511.043	0.0655479
512.972	0.0694759
514.9	0.072654
516.829	0.0726779
518.757	0.0689072
520.686	0.0620056
522.614	0.05426
524.543	0.0474662
526.471	0.0428298
528.4	0.040333
530.328	0.0391462
532.257	0.038354
534.185	0.0377449
536.114	0.0378101
538.042	0.0381311
539.971	0.0383011
541.899	0.0387051
543.827	0.0387558
545.756	0.0389376
547.684	0.039715
549.613	0.0399722
551.541	0.0402696
553.47	0.0408686
555.398	0.0414466
557.327	0.0419727
559.255	0.0423807
561.184	0.043129
563.112	0.0442455
565.041	0.0451939
566.969	0.0461858
568.898	0.0471759
570.826	0.0485337
572.755	0.0498948
574.683	0.0512613
576.611	0.0529651
578.54	0.054916
580.468	0.0570418
582.397	0.0593031
584.325	0.0615626
586.254	0.0641804
588.182	0.0675636
590.111	0.0711785
592.039	0.0752695
593.968	0.0802329
595.896	0.0852239
597.824	0.0899406
599.753	0.0937601
601.682	0.0947845
603.61	0.092841
605.538	0.0913163
607.467	0.0928816
609.395	0.0959127
611.324	0.0972922
613.252	0.0959183
615.181	0.0920191
617.109	0.087309
619.038	0.0828645
620.966	0.0781443
622.894	0.0757872
624.823	0.0779898
626.751	0.0829305
628.68	0.0895605
630.608	0.0969636
632.537	0.103945
634.465	0.108719
636.394	0.11005
638.322	0.107448
640.251	0.101307
642.179	0.0934046
644.108	0.0850032
646.036	0.0770347
647.965	0.070791
649.893	0.0660963
651.822	0.0625109
653.75	0.0604106
655.678	0.0596168
657.607	0.059596
659.535	0.0604767
661.464	0.0625963
663.392	0.0646168
665.321	0.0657854
667.249	0.0661561
669.178	0.0657565
671.106	0.0647033
673.035	0.0628521
674.963	0.0600634
676.892	0.0571372
678.82	0.0554483
680.749	0.0541681
682.677	0.052688
684.606	0.0513981
686.534	0.0512814
688.462	0.0514595
690.391	0.0512431
692.319	0.0519271
694.248	0.052368
696.176	0.0529262
698.105	0.0543325
700.033	0.0559248
