Measurement: Infrared, Infrared Data Processed
Mineral: Aragonite
Rruff sample: R040078
Ideal chemistry: CaCO_3_
Locality: Molina, Aragon, Spain
Source: University of Arizona Mineral Museum
Description: Orange pseudohexagonal prisms
Measured chemistry: Ca_1.00_CO_3_
x	intensity
374.123	0.02581
383.765	0.0228758
393.407	0.0245041
403.05	0.0202816
412.692	0.0177164
422.334	0.017206
431.976	0.0176506
441.619	0.0178091
451.261	0.019141
460.904	0.0199135
470.546	0.0192203
480.188	0.0187321
489.83	0.0173476
499.473	0.017004
509.115	0.016096
518.758	0.0161832
528.4	0.016424
538.042	0.0163335
547.684	0.0162351
557.327	0.0155258
566.969	0.0151862
576.611	0.0151546
586.254	0.0144096
595.896	0.0143221
605.538	0.0130393
615.181	0.0130204
624.823	0.0133636
634.466	0.013531
644.108	0.013671
653.75	0.0141073
663.393	0.0141402
673.035	0.0150179
682.677	0.0163478
692.319	0.0187241
701.962	0.0347666
711.604	0.0705292
721.246	0.014225
730.889	0.0126991
740.531	0.0134112
750.173	0.0139198
759.816	0.0142781
769.458	0.0149734
779.101	0.0155376
788.743	0.0168174
798.385	0.0182677
808.028	0.0209275
817.67	0.0247427
827.312	0.0338259
836.955	0.0591799
846.597	0.108327
856.239	0.2004
865.881	0.105697
875.524	0.0309801
885.166	0.0199986
894.808	0.0173982
904.451	0.0177403
914.093	0.0176194
923.736	0.0183348
933.378	0.0195723
943.02	0.0208373
952.663	0.022509
962.305	0.0241009
971.947	0.0252875
981.59	0.0268927
991.232	0.0280868
1000.87	0.0296878
1010.52	0.0307411
1020.16	0.0310792
1029.8	0.0312709
1039.44	0.0309798
1049.09	0.0315165
1058.73	0.0324937
1068.37	0.0336317
1078.01	0.039119
1087.65	0.0343707
1097.3	0.0318684
1106.94	0.0326084
1116.58	0.0332045
1126.22	0.0345832
1135.87	0.0357716
1145.51	0.0378904
1155.15	0.0400075
1164.79	0.0421912
1174.44	0.0445033
1184.08	0.0462924
1193.72	0.047987
1203.36	0.0507033
1213.01	0.0536213
1222.65	0.0568061
1232.29	0.0603199
1241.93	0.0638584
1251.58	0.0672456
1261.22	0.0714902
1270.86	0.0764437
1280.5	0.0819735
1290.14	0.0867516
1299.79	0.0937284
1309.43	0.101327
1319.07	0.110103
1328.71	0.12048
1338.36	0.133265
1348	0.147796
1357.64	0.164248
1367.28	0.183448
1376.92	0.205241
1386.57	0.229694
1396.21	0.254233
1405.85	0.280976
1415.49	0.30482
1425.14	0.328819
1434.78	0.359682
1444.42	0.382353
1454.06	0.377446
1463.71	0.371731
1473.35	0.355656
1482.99	0.309287
1492.63	0.263408
1502.28	0.223123
1511.92	0.188133
1521.56	0.157187
1531.2	0.128711
1540.85	0.104064
1550.49	0.0815172
1560.13	0.0630982
1569.77	0.0468961
1579.41	0.0300262
1589.06	0.0204928
1598.7	0.0172518
1608.34	0.0151949
1617.98	0.0136475
1627.63	0.0118543
1637.27	0.0110306
1646.91	0.0101918
1656.55	0.00883195
1666.19	0.00751496
1675.84	0.00685358
1685.48	0.00631562
1695.12	0.00554314
1704.77	0.00449031
1714.41	0.00402706
1724.05	0.00377964
1733.69	0.00462701
1743.33	0.00399489
1752.98	0.00363952
1762.62	0.00354483
1772.26	0.00567641
1781.9	0.0151546
1791.55	0.0123968
1801.19	0.00528601
1810.83	0.00319995
1820.47	0.00330451
1830.12	0.00321771
1839.76	0.00344009
1849.4	0.00350416
1859.04	0.00365409
1868.68	0.0039813
1878.33	0.00396525
1887.97	0.00443921
1897.61	0.00428395
1907.25	0.00467367
1916.9	0.00548907
1926.54	0.00461867
1936.18	0.0057312
1945.82	0.00566588
1955.46	0.00587218
1965.11	0.0073045
1974.75	0.00758224
1984.39	0.0080465
1994.04	0.00864651
2003.68	0.00657942
2013.32	0.00754474
2022.96	0.00744512
2032.6	0.00811767
2042.25	0.00864495
2051.89	0.00812079
2061.53	0.00649985
2071.17	0.00668289
2080.82	0.00742284
2090.46	0.00674211
2100.1	0.00706741
2109.74	0.00770493
2119.39	0.00644348
2129.03	0.00676865
2138.67	0.00832953
2148.31	0.00637431
2157.95	0.00848725
2167.6	0.00980747
2177.24	0.0108078
2186.88	0.0093041
2196.52	0.0101842
2206.17	0.0100522
2215.81	0.0100995
2225.45	0.0105209
2235.09	0.0101008
2244.74	0.0106581
2254.38	0.00956479
2264.02	0.00941512
2273.66	0.00979641
2283.3	0.0104719
2292.95	0.00960024
2302.59	0.00947184
2312.23	0.00983137
2321.87	0.0115877
2331.52	0.0106438
2341.16	0.0108203
2350.8	0.0100496
2360.44	0.0119302
2370.09	0.0105241
2379.73	0.00944685
2389.37	0.00973667
2399.01	0.00968217
2408.66	0.0101904
2418.3	0.00957983
2427.94	0.0103674
2437.58	0.0100229
2447.22	0.0103287
2456.87	0.0110312
2466.51	0.0113524
2476.15	0.0124043
2485.79	0.0132709
2495.44	0.0149472
2505.08	0.015128
2514.72	0.0154143
2524.36	0.0166932
2534.01	0.0147036
2543.65	0.0142939
2553.29	0.013401
2562.93	0.0131627
2572.57	0.0122109
2582.22	0.0117973
2591.86	0.0114121
2601.5	0.0116002
2611.14	0.011799
2620.79	0.0116217
2630.43	0.0118615
2640.07	0.0110354
2649.71	0.0109507
2659.36	0.0104991
2669	0.00967826
2678.64	0.0101045
2688.28	0.00981618
2697.93	0.0100381
2707.57	0.00982201
2717.21	0.00986897
2726.85	0.00940481
2736.49	0.00989101
2746.14	0.00984879
2755.78	0.00951995
2765.42	0.00956176
2775.06	0.00931207
2784.71	0.00927479
2794.35	0.00975063
2803.99	0.00958742
2813.63	0.00987252
2823.28	0.00947894
2832.92	0.00992013
2842.56	0.010502
2852.2	0.0108299
2861.84	0.0106269
2871.49	0.0106729
2881.13	0.0108912
2890.77	0.0113338
2900.41	0.0118286
2910.06	0.0124855
2919.7	0.0137415
2929.34	0.0131632
2938.98	0.0120893
2948.62	0.0117853
2958.27	0.0127406
2967.91	0.012327
2977.55	0.0117955
2987.2	0.0114429
2996.84	0.0112248
3006.48	0.0117432
3016.12	0.011032
3025.76	0.0110924
3035.41	0.0113649
3045.05	0.0116252
3054.69	0.011956
3064.33	0.0121749
3073.98	0.0126836
3083.62	0.0136285
3093.26	0.0131238
3102.9	0.0139962
3112.55	0.0146347
3122.19	0.0143518
3131.83	0.0151271
3141.47	0.0152615
3151.11	0.0153068
3160.76	0.0155005
3170.4	0.0162489
3180.04	0.0165602
3189.68	0.0163827
3199.33	0.017412
3208.97	0.0170601
3218.61	0.0165786
3228.25	0.0169217
3237.9	0.0166152
3247.54	0.0174046
3257.18	0.0174823
3266.82	0.0165493
3276.47	0.0174517
3286.11	0.0173414
3295.75	0.0176403
3305.39	0.0173113
3315.03	0.0179212
3324.68	0.0176303
3334.32	0.0167337
3343.96	0.0176813
3353.6	0.0174025
3363.25	0.0176523
3372.89	0.0177923
3382.53	0.0172985
3392.17	0.0174012
3401.82	0.0176481
3411.46	0.0172532
3421.1	0.0171056
3430.74	0.017054
3440.39	0.0171172
3450.03	0.0173282
3459.67	0.0171054
3469.31	0.0175405
3478.95	0.017159
3488.6	0.0165312
3498.24	0.0173741
3507.88	0.0162552
3517.52	0.0171005
3527.17	0.0168824
3536.81	0.016432
3546.45	0.0166577
3556.09	0.0166654
3565.74	0.0166157
3575.38	0.0160703
3585.02	0.0162807
3594.66	0.015861
3604.3	0.015309
3613.95	0.0158334
3623.59	0.0166937
3633.23	0.0162201
3642.87	0.0160386
3652.52	0.0161219
3662.16	0.0149541
3671.8	0.0173467
3681.44	0.0184128
3691.09	0.0232869
3700.73	0.0275302
3710.37	0.016588
3720.01	0.0147609
3729.66	0.0152285
3739.3	0.0152995
3748.94	0.0163038
3758.58	0.0152315
3768.22	0.0147037
3777.87	0.0134686
3787.51	0.0139105
3797.15	0.0147905
3806.79	0.0152197
3816.44	0.0156645
3826.08	0.0146476
3835.72	0.0155999
3845.36	0.0140509
3855.01	0.0149577
3864.65	0.0144649
3874.29	0.0145154
3883.93	0.0154251
3893.57	0.0142084
3903.22	0.0149025
3912.86	0.0150201
3922.5	0.0133169
3932.14	0.0145223
3941.79	0.0130499
3951.43	0.0140572
3961.07	0.0138178
3970.71	0.0146665
3980.36	0.0136775
3990	0.0151021
3999.64	0.0139565
