Measurement: Infrared, Infrared Data Processed
Mineral: Arfvedsonite
Rruff sample: R050514
Ideal chemistry: NaNa_2_(Fe^2+^_4_Fe^3+^)Si_8_O_22_(OH)_2_
Locality: unknown
Source: Frank Hawthorne
Description: Small black fragments
Measured chemistry: (Na_2.44_K_0.22_Ca_0.17_[box]_0.17_)_Σ=3_(Fe^2+^_2.55_Fe^3+^_0.94_Mg_0.80_Mn_0.55_Ti_0.09_Al_0.07_)_Σ=5_(Si_7.81_Al_0.19_)_8_O_22_((OH)_1.40_F_0.60_)_Σ=2_
x	intensity
399.193	0.192749
408.835	0.219031
418.477	0.230268
428.12	0.248776
437.762	0.264908
447.404	0.264757
457.047	0.243387
466.689	0.226579
476.331	0.213773
485.974	0.198884
495.616	0.17895
505.258	0.1569
514.901	0.135978
524.543	0.121963
534.185	0.116133
543.828	0.104293
553.47	0.0850605
563.112	0.0721391
572.755	0.066704
582.397	0.0651688
592.039	0.0679507
601.682	0.0731503
611.324	0.0796603
620.966	0.0855943
630.609	0.0931006
640.251	0.104078
649.893	0.0986444
659.536	0.0895087
669.178	0.0840336
678.82	0.0777999
688.463	0.075456
698.105	0.0756625
707.747	0.0765876
717.39	0.0760073
727.032	0.0773489
736.674	0.0836597
746.317	0.0944299
755.959	0.0942682
765.601	0.0830313
775.244	0.0787394
784.886	0.0740519
794.528	0.0732327
804.171	0.0744439
813.813	0.0768727
823.455	0.0842813
833.098	0.0966111
842.74	0.113679
852.382	0.137671
862.025	0.168326
871.667	0.201562
881.309	0.227565
890.952	0.24989
900.594	0.269032
910.236	0.292171
919.879	0.321995
929.521	0.353819
939.163	0.389671
948.806	0.409843
958.448	0.40489
968.09	0.383302
977.733	0.350923
987.375	0.310166
997.017	0.270542
1006.66	0.237983
1016.3	0.212438
1025.94	0.192513
1035.59	0.176582
1045.23	0.163811
1054.87	0.157768
1064.51	0.153313
1074.16	0.141887
1083.8	0.121026
1093.44	0.102747
1103.08	0.0910619
1112.72	0.0873166
1122.37	0.0892646
1132.01	0.0794751
1141.65	0.0569972
1151.3	0.0418754
1160.94	0.0343732
1170.58	0.028626
1180.22	0.0241307
1189.86	0.020331
1199.51	0.0158937
1209.15	0.0126838
1218.79	0.0106295
1228.43	0.00901081
1238.08	0.00794933
1247.72	0.007099
1257.36	0.00633689
1267	0.00581135
1276.64	0.00602027
1286.29	0.00556287
1295.93	0.005498
1305.57	0.00562942
1315.21	0.00542662
1324.86	0.00557101
1334.5	0.00547605
1344.14	0.00570495
1353.78	0.00601865
1363.43	0.00661644
1373.07	0.00674233
1382.71	0.0070324
1392.35	0.00725677
1401.99	0.00763324
1411.64	0.00747697
1421.28	0.00735624
1430.92	0.00708605
1440.57	0.0069688
1450.21	0.00682855
1459.85	0.0069742
1469.49	0.00615664
1479.13	0.00579311
1488.78	0.00616522
1498.42	0.00675993
1508.06	0.00723382
1517.7	0.00655362
1527.35	0.00682816
1536.99	0.00756831
1546.63	0.00833693
1556.27	0.00937415
1565.91	0.00959574
1575.56	0.010542
1585.2	0.0105475
1594.84	0.010835
1604.48	0.0108691
1614.13	0.0109922
1623.77	0.0111335
1633.41	0.0110212
1643.05	0.0102375
1652.7	0.0108205
1662.34	0.00911857
1671.98	0.00816636
1681.62	0.00769475
1691.27	0.00689706
1700.91	0.00730644
1710.55	0.00651987
1720.19	0.00704844
1729.84	0.0075491
1739.48	0.0057225
1749.12	0.00371476
1758.76	0.00407433
1768.4	0.00502909
1778.05	0.00450221
1787.69	0.00411369
1797.33	0.00382634
1806.97	0.00318174
1816.62	0.00298672
1826.26	0.00309258
1835.9	0.00254445
1845.54	0.00231676
1855.18	0.00233736
1864.83	0.00209933
1874.47	0.00204232
1884.11	0.00205461
1893.75	0.00216191
1903.4	0.00196565
1913.04	0.00178887
1922.68	0.00158165
1932.32	0.00145331
1941.97	0.000921599
1951.61	0.000577981
1961.25	0.000365445
1970.89	0.000813674
1980.54	0.00155748
1990.18	0.00102969
1999.82	0.00221577
2009.46	0.00105369
2019.11	0.0016256
2028.75	0.00260634
2038.39	0.00101357
2048.03	0.00138244
2057.67	0.00214606
2067.32	0.00156065
2076.96	0.00165351
2086.6	0.00197561
2096.24	0.00247311
2105.89	0.00283044
2115.53	0.00332205
2125.17	0.00261875
2134.81	0.00197433
2144.45	0.00173736
2154.1	0.00200023
2163.74	0.00373634
2173.38	0.00412069
2183.02	0.00371821
2192.67	0.00463705
2202.31	0.00554154
2211.95	0.0045255
2221.59	0.00479147
2231.24	0.00425954
2240.88	0.0056297
2250.52	0.00422414
2260.16	0.00433888
2269.8	0.00481836
2279.45	0.0054686
2289.09	0.00505008
2298.73	0.00501364
2308.38	0.0046767
2318.02	0.00537656
2327.66	0.00561187
2337.3	0.00578553
2346.94	0.00527058
2356.59	0.00606812
2366.23	0.00637574
2375.87	0.00489838
2385.51	0.00467924
2395.16	0.00442952
2404.8	0.00400494
2414.44	0.00441526
2424.08	0.00432652
2433.72	0.00425478
2443.37	0.00410878
2453.01	0.00501153
2462.65	0.00436088
2472.29	0.00456501
2481.94	0.00477189
2491.58	0.00464395
2501.22	0.00458455
2510.86	0.00461771
2520.51	0.00483485
2530.15	0.00465282
2539.79	0.00458322
2549.43	0.0047872
2559.07	0.00489596
2568.72	0.00557793
2578.36	0.00505094
2588	0.0052687
2597.64	0.00510681
2607.29	0.00575114
2616.93	0.00586521
2626.57	0.00564162
2636.21	0.00591864
2645.86	0.00582396
2655.5	0.0059052
2665.14	0.00590516
2674.78	0.00564969
2684.43	0.00594302
2694.07	0.00635542
2703.71	0.0060671
2713.35	0.00665962
2722.99	0.00657613
2732.64	0.00703842
2742.28	0.00724936
2751.92	0.00733044
2761.56	0.00744037
2771.21	0.00792636
2780.85	0.00808629
2790.49	0.0080545
2800.13	0.00821197
2809.78	0.00846513
2819.42	0.00876279
2829.06	0.00927303
2838.7	0.0095523
2848.34	0.00894779
2857.99	0.0103279
2867.63	0.0111227
2877.27	0.0111292
2886.91	0.011115
2896.56	0.0115204
2906.2	0.0118881
2915.84	0.0111604
2925.48	0.0128452
2935.13	0.0128814
2944.77	0.0125789
2954.41	0.0139552
2964.05	0.0136878
2973.7	0.0119256
2983.34	0.0112503
2992.98	0.0110685
3002.62	0.0112042
3012.26	0.0121442
3021.91	0.0115662
3031.55	0.0123289
3041.19	0.0124303
3050.83	0.0121346
3060.48	0.0136304
3070.12	0.0129973
3079.76	0.0139047
3089.4	0.0144641
3099.05	0.0145536
3108.69	0.0147997
3118.33	0.014826
3127.97	0.015317
3137.61	0.0160272
3147.26	0.016006
3156.9	0.0168444
3166.54	0.01659
3176.18	0.0167783
3185.83	0.0170546
3195.47	0.0172552
3205.11	0.0181733
3214.75	0.0182067
3224.4	0.0172312
3234.04	0.0189044
3243.68	0.018118
3253.32	0.0185003
3262.97	0.0188388
3272.61	0.019365
3282.25	0.0191219
3291.89	0.0190499
3301.53	0.0191257
3311.18	0.0194764
3320.82	0.0196498
3330.46	0.0202688
3340.1	0.0205978
3349.75	0.0198829
3359.39	0.0204724
3369.03	0.0200389
3378.67	0.0194815
3388.32	0.0197397
3397.96	0.019502
3407.6	0.0193606
3417.24	0.0192698
3426.89	0.0190038
3436.53	0.0191549
3446.17	0.0185272
3455.81	0.0177351
3465.45	0.0180136
3475.1	0.0165419
3484.74	0.0172966
3494.38	0.0163577
3504.02	0.0162255
3513.67	0.0158971
3523.31	0.0152219
3532.95	0.0142883
3542.59	0.0141274
3552.24	0.0131791
3561.88	0.0131328
3571.52	0.0122477
3581.16	0.0111027
3590.8	0.00999534
3600.45	0.00905517
3610.09	0.00899078
3619.73	0.00965535
3629.37	0.00594077
3639.02	0.00585166
3648.66	0.00499766
3658.3	0.00228028
3667.94	0.00190689
3677.59	0.000708416
3687.23	0.00170296
3696.87	3.1982e-05
3706.51	5.29821e-05
3716.16	0.000569909
3725.8	-0.000657458
3735.44	0.000787417
3745.08	0.00142098
3754.72	-0.000268758
3764.37	0.000460633
3774.01	0.000414544
3783.65	-0.000944371
3793.29	-0.00133583
3802.94	0.000411305
3812.58	-0.000107213
3822.22	0.00096163
3831.86	0.000753143
3841.51	-0.000605736
3851.15	0.000979403
3860.79	-0.000910443
3870.43	-0.000312637
3880.07	-0.000652336
3889.72	-0.000889423
3899.36	-0.00021159
3909	-0.000726917
3918.64	-0.000580047
3928.29	-0.00116151
3937.93	-0.000680094
3947.57	-0.000835051
3957.21	-0.00176385
3966.86	-0.00107109
3976.5	-0.00108123
3986.14	-0.00113429
3995.78	-0.0010226
