Measurement: Infrared, Infrared Data Processed
Mineral: Argandite
Rruff sample: R130044
Ideal chemistry: Mn^2+^_7_(V^5+^O_4_)_2_(OH)_8_
Locality: Pipji glacier (Pipjigletscher) in the Turtmann valley, Central Alps, Switzerland
Source: Joel Brugger
Description: Transparent, orange in color with a pale orange streak and vitreous luster. Associated with the V-minerals pyrobelonite, reppiaite, and an unknown silico-vanadate. Data from Brugger et al (2011)
Measured chemistry: (Mn_6.54_Mg_0.38_Ni_0.04_Ca_0.02_Zn_0.01_Sr_0.01_)_Σ=7_(V_1.46_As_0.54_)_Σ=2_O_8_(OH)_8_
x	intensity
661.475	45.3718
671.117	42.1286
680.76	35.8976
690.402	29.3752
700.044	22.2661
709.687	16.0625
719.33	13.0124
728.972	12.3516
738.614	13.2587
748.257	15.7199
757.899	19.1719
767.542	22.9901
777.184	22.0365
786.827	18.171
796.469	13.2079
806.112	8.42635
815.754	5.97961
825.397	5.06103
835.039	4.63591
844.682	4.26359
854.324	3.96128
863.967	5.11346
873.609	7.09474
883.252	10.3164
892.894	16.604
902.537	29.8614
912.179	47.3602
921.822	62.0849
931.464	73.1957
941.107	80.3819
950.749	83.9119
960.392	83.49
970.034	79.3546
979.677	75.8147
989.319	76.218
998.962	78.3183
1008.6	80.2373
1018.25	82.3907
1027.89	82.4755
1037.53	86.852
1047.17	88.4326
1056.82	92.4941
1066.46	94.6625
1076.1	95.8004
1085.74	96.5563
1095.39	97.6962
1105.03	98.9086
1114.67	99.5943
1124.31	99.9283
1133.96	100.346
1143.6	101.414
1153.24	102.615
1162.88	103.402
1172.53	103.124
1182.17	103.648
1191.81	104.51
1201.45	105.495
1211.1	106.135
1220.74	106.961
1230.38	107.642
1240.02	108.276
1249.67	108.734
1259.31	109.121
1268.95	109.442
1278.59	109.9
1288.24	110.028
1297.88	110.527
1307.52	111.05
1317.16	111.235
1326.81	111.585
1336.45	111.618
1346.09	111.668
1355.73	111.617
1365.38	111.217
1375.02	110.906
1384.66	110.719
1394.3	110.195
1403.95	110.265
1413.59	109.945
1423.23	109.319
1432.87	108.601
1442.52	108.062
1452.16	107.101
1461.8	106.352
1471.44	105.292
1481.09	105.755
1490.73	105.292
1500.37	105.557
1510.01	104.911
1519.66	104.709
1529.3	104.847
1538.94	103.972
1548.58	104.034
1558.23	102.736
1567.87	103.014
1577.51	102.528
1587.15	102.46
1596.8	101.598
1606.44	101.2
1616.08	100.499
1625.72	100.42
1635.37	99.7122
1645.01	99.674
1654.65	98.9562
1664.29	99.0573
1673.94	98.5156
1683.58	97.8439
1693.22	98.748
1702.86	98.617
1712.51	98.9867
1722.15	99.2168
1731.79	98.7988
1741.43	99.0427
1751.08	99.2226
1760.72	99.8788
1770.36	100.074
1780	100.807
1789.64	101.316
1799.29	101.639
1808.93	102.102
1818.57	102.621
1828.21	102.65
1837.86	103.219
1847.5	103.43
1857.14	103.947
1866.79	103.898
1876.43	104.555
1886.07	104.865
1895.71	105.031
1905.36	105.413
1915	105.544
1924.64	105.521
1934.28	105.642
1943.92	105.638
1953.57	105.899
1963.21	106.182
1972.85	106.649
1982.49	107.025
1992.14	107.189
2001.78	107.718
2011.42	108.073
2021.07	108.35
2030.71	108.756
2040.35	108.857
2049.99	109.055
2059.64	109.367
2069.28	109.46
2078.92	109.572
2088.56	109.599
2098.2	109.657
2107.85	109.688
2117.49	109.724
2127.13	109.73
2136.78	109.572
2146.42	109.523
2156.06	109.469
2165.7	109.135
2175.34	109.149
2184.99	108.879
2194.63	108.758
2204.27	108.498
2213.91	108.288
2223.56	108.092
2233.2	107.906
2242.84	107.648
2252.49	107.432
2262.13	107.278
2271.77	107.006
2281.41	106.725
2291.05	106.516
2300.7	106.358
2310.34	106.236
2319.98	105.999
2329.62	106.054
2339.27	105.986
2348.91	105.44
2358.55	105.842
2368.2	104.909
2377.84	104.801
2387.48	104.734
2397.12	104.645
2406.76	104.55
2416.41	104.433
2426.05	104.381
2435.69	104.273
2445.33	104.225
2454.98	104.234
2464.62	104.166
2474.26	104.148
2483.9	104.114
2493.55	104.157
2503.19	104.225
2512.83	104.216
2522.47	104.236
2532.12	104.331
2541.76	104.375
2551.4	104.511
2561.04	104.546
2570.69	104.66
2580.33	104.743
2589.97	104.852
2599.61	104.906
2609.26	105.063
2618.9	105.198
2628.54	105.309
2638.18	105.392
2647.83	105.531
2657.47	105.652
2667.11	105.775
2676.75	105.847
2686.4	105.954
2696.04	106.027
2705.68	106.066
2715.32	106.132
2724.97	106.139
2734.61	106.179
2744.25	106.176
2753.89	106.18
2763.54	106.17
2773.18	106.158
2782.82	106.11
2792.46	105.976
2802.11	105.923
2811.75	105.766
2821.39	105.671
2831.03	105.482
2840.68	105.102
2850.32	104.112
2859.96	103.565
2869.6	103.477
2879.25	103.354
2888.89	103.096
2898.53	102.574
2908.17	101.987
2917.82	100.829
2927.46	99.5073
2937.1	99.7143
2946.74	99.8112
2956.39	99.3983
2966.03	99.3996
2975.67	99.4573
2985.31	99.359
2994.96	99.2169
3004.6	99.1425
3014.24	98.8124
3023.88	98.4906
3033.53	98.0175
3043.17	97.6032
3052.81	97.1012
3062.45	96.5188
3072.1	95.9631
3081.74	95.2731
3091.38	94.6231
3101.02	93.8691
3110.67	93.1815
3120.31	92.4118
3129.95	91.6924
3139.59	90.9086
3149.24	90.1117
3158.88	89.2579
3168.52	88.4015
3178.16	87.4118
3187.81	86.498
3197.45	85.3372
3207.09	84.1947
3216.73	82.8115
3226.38	81.3526
3236.02	79.5771
3245.66	77.3841
3255.3	74.761
3264.95	71.5877
3274.59	67.702
3284.23	63.5404
3293.87	59.3092
3303.52	55.3329
3313.16	51.3755
3322.8	47.8504
3332.44	45.2099
3342.09	44.6736
3351.73	46.3616
3361.37	49.2088
3371.01	52.2145
3380.66	54.6557
3390.3	56.1939
3399.94	56.9331
3409.58	56.8269
3419.22	55.7276
3428.87	53.2822
3438.51	49.4447
3448.15	43.8963
3457.8	37.2286
3467.44	29.7916
3477.08	24.367
3486.72	24.712
3496.36	32.9097
3506.01	44.62
3515.65	54.0784
3525.29	63.2326
3534.93	66.9322
3544.58	50.408
3554.22	39.5354
3563.86	67.8922
3573.51	88.3858
3583.15	93.9659
3592.79	96.7011
3602.43	98.8174
3612.07	99.8831
3621.72	101.221
3631.36	101.786
3641	102.504
3650.64	101.972
3660.29	103.148
3669.93	102.252
3679.57	102.95
3689.22	102.297
3698.86	103.555
3708.5	103.275
3718.14	103.48
3727.78	103.179
3737.43	102.55
3747.07	102.331
3756.71	102.924
3766.36	102.974
3776	103.358
3785.64	102.982
3795.28	102.949
3804.93	102.61
3814.57	102.462
3824.21	102.35
3833.85	102.217
3843.49	102.103
3853.14	101.069
3862.78	101.773
3872.42	101.921
3882.07	101.879
3891.71	101.853
3901.35	101.609
3910.99	102.315
3920.64	102.034
3930.28	101.914
3939.92	102.125
3949.56	101.925
3959.2	102.057
3968.85	102.075
3978.49	102.069
3988.13	102.057
3997.77	102.075
