Measurement: Infrared, Infrared Data Processed
Mineral: Arrojadite-(KNa)
Rruff sample: R050107
Ideal chemistry: KNa_3_(CaNa_2_)Fe^2+^_13_Al(PO_4_)_11_(PO_3_OH)(OH)_2_
Locality: Big-Fish River, Yukon Territory, Canada
Source: Rock Currier
Description: Yellowish green tabular crystals
x	intensity
399.193	0.136257
408.835	0.141217
418.477	0.134788
428.12	0.123154
437.762	0.106768
447.404	0.0960427
457.047	0.0979837
466.689	0.0779227
476.331	0.0590949
485.974	0.0533488
495.616	0.0514021
505.258	0.0509609
514.901	0.0508301
524.543	0.0672268
534.185	0.120071
543.828	0.165636
553.47	0.223325
563.112	0.183539
572.755	0.167627
582.397	0.149725
592.039	0.14072
601.682	0.134011
611.324	0.113055
620.966	0.0921097
630.609	0.0681714
640.251	0.0513449
649.893	0.0499344
659.536	0.0536637
669.178	0.043989
678.82	0.0332639
688.463	0.027253
698.105	0.0255657
707.747	0.0251844
717.39	0.0253043
727.032	0.0252957
736.674	0.0259386
746.317	0.0269557
755.959	0.0282449
765.601	0.0310489
775.244	0.0358822
784.886	0.0410857
794.528	0.0432872
804.171	0.0481688
813.813	0.0556576
823.455	0.0609615
833.098	0.0617844
842.74	0.0607436
852.382	0.0604112
862.025	0.0649117
871.667	0.0751194
881.309	0.0928485
890.952	0.129032
900.594	0.170309
910.236	0.153938
919.879	0.194376
929.521	0.247899
939.163	0.30444
948.806	0.324319
958.448	0.324101
968.09	0.326801
977.733	0.345421
987.375	0.358297
997.017	0.367922
1006.66	0.346334
1016.3	0.326971
1025.94	0.303227
1035.59	0.301724
1045.23	0.308735
1054.87	0.291533
1064.51	0.282972
1074.16	0.283722
1083.8	0.26567
1093.44	0.222
1103.08	0.198969
1112.72	0.174534
1122.37	0.136484
1132.01	0.095793
1141.65	0.06915
1151.3	0.053838
1160.94	0.0411592
1170.58	0.0305761
1180.22	0.028167
1189.86	0.0227381
1199.51	0.0163173
1209.15	0.0120587
1218.79	0.00900761
1228.43	0.00748469
1238.08	0.00641636
1247.72	0.00539144
1257.36	0.00509337
1267	0.00465423
1276.64	0.00435348
1286.29	0.00436139
1295.93	0.00415981
1305.57	0.00397997
1315.21	0.00415257
1324.86	0.0043769
1334.5	0.00454905
1344.14	0.00475982
1353.78	0.00472889
1363.43	0.005171
1373.07	0.00514012
1382.71	0.00546007
1392.35	0.00549857
1401.99	0.00590902
1411.64	0.00614519
1421.28	0.00639068
1430.92	0.00712239
1440.57	0.00737019
1450.21	0.0081509
1459.85	0.00810268
1469.49	0.00583138
1479.13	0.00528616
1488.78	0.00528448
1498.42	0.00547841
1508.06	0.00590926
1517.7	0.00577162
1527.35	0.00612968
1536.99	0.00680042
1546.63	0.00685197
1556.27	0.00797786
1565.91	0.00795869
1575.56	0.00881624
1585.2	0.0085466
1594.84	0.00921465
1604.48	0.00891981
1614.13	0.0092604
1623.77	0.00918689
1633.41	0.0094326
1643.05	0.00895175
1652.7	0.00969655
1662.34	0.00858252
1671.98	0.00818008
1681.62	0.00810189
1691.27	0.00754098
1700.91	0.00801667
1710.55	0.00697195
1720.19	0.007488
1729.84	0.00789761
1739.48	0.00688
1749.12	0.00534136
1758.76	0.0052052
1768.4	0.00510428
1778.05	0.00475494
1787.69	0.00515103
1797.33	0.00519795
1806.97	0.00519691
1816.62	0.00490293
1826.26	0.00485594
1835.9	0.00474243
1845.54	0.00521287
1855.18	0.00504486
1864.83	0.00480901
1874.47	0.00437074
1884.11	0.00391055
1893.75	0.00460136
1903.4	0.00458855
1913.04	0.00466797
1922.68	0.00472196
1932.32	0.00484065
1941.97	0.00451019
1951.61	0.00536172
1961.25	0.00726761
1970.89	0.00505644
1980.54	0.00751276
1990.18	0.00516738
1999.82	0.0059735
2009.46	0.0064983
2019.11	0.00617554
2028.75	0.00797402
2038.39	0.00837703
2048.03	0.00739692
2057.67	0.00849474
2067.32	0.00723643
2076.96	0.00768299
2086.6	0.00696076
2096.24	0.00665549
2105.89	0.00740188
2115.53	0.00720382
2125.17	0.00809086
2134.81	0.00671168
2144.45	0.00710674
2154.1	0.00897822
2163.74	0.00887565
2173.38	0.00871076
2183.02	0.00857435
2192.67	0.00822477
2202.31	0.00945896
2211.95	0.0086099
2221.59	0.00996087
2231.24	0.00993382
2240.88	0.0101428
2250.52	0.00959981
2260.16	0.00923633
2269.8	0.0102405
2279.45	0.0106999
2289.09	0.0109365
2298.73	0.0101092
2308.38	0.0108318
2318.02	0.0113797
2327.66	0.011244
2337.3	0.0118864
2346.94	0.0109904
2356.59	0.0123638
2366.23	0.0117758
2375.87	0.0114819
2385.51	0.0114934
2395.16	0.0116382
2404.8	0.0112812
2414.44	0.0115964
2424.08	0.0122158
2433.72	0.0124029
2443.37	0.0128843
2453.01	0.0127063
2462.65	0.0129162
2472.29	0.0131353
2481.94	0.0137932
2491.58	0.0136453
2501.22	0.0137641
2510.86	0.0135706
2520.51	0.0137747
2530.15	0.0143939
2539.79	0.0144467
2549.43	0.0150371
2559.07	0.0145992
2568.72	0.0149998
2578.36	0.0150318
2588	0.015666
2597.64	0.0158929
2607.29	0.0154573
2616.93	0.0160292
2626.57	0.0167243
2636.21	0.0158404
2645.86	0.0165293
2655.5	0.0164491
2665.14	0.0162424
2674.78	0.0165143
2684.43	0.016244
2694.07	0.0168456
2703.71	0.0168554
2713.35	0.0169917
2722.99	0.0175085
2732.64	0.0174837
2742.28	0.0174896
2751.92	0.0177197
2761.56	0.0187242
2771.21	0.0188655
2780.85	0.0185393
2790.49	0.0192462
2800.13	0.019666
2809.78	0.0196868
2819.42	0.0199401
2829.06	0.0205671
2838.7	0.0213258
2848.34	0.0229188
2857.99	0.0230784
2867.63	0.0233953
2877.27	0.0233385
2886.91	0.0237673
2896.56	0.0237115
2906.2	0.0242312
2915.84	0.0250767
2925.48	0.0264106
2935.13	0.0253988
2944.77	0.025853
2954.41	0.0263498
2964.05	0.0259654
2973.7	0.0250862
2983.34	0.0242744
2992.98	0.0250407
3002.62	0.0251124
3012.26	0.0244392
3021.91	0.0254121
3031.55	0.0254166
3041.19	0.026071
3050.83	0.0259956
3060.48	0.0271378
3070.12	0.0270593
3079.76	0.0269021
3089.4	0.0282816
3099.05	0.0277411
3108.69	0.0280151
3118.33	0.0282192
3127.97	0.0275685
3137.61	0.0275933
3147.26	0.0278358
3156.9	0.0284536
3166.54	0.0285791
3176.18	0.0296419
3185.83	0.0299086
3195.47	0.0294996
3205.11	0.0292892
3214.75	0.029966
3224.4	0.0302483
3234.04	0.0293325
3243.68	0.0294531
3253.32	0.0290399
3262.97	0.0279898
3272.61	0.0292954
3282.25	0.0286763
3291.89	0.0292102
3301.53	0.028574
3311.18	0.0283976
3320.82	0.0278308
3330.46	0.0271797
3340.1	0.0281
3349.75	0.0298126
3359.39	0.0291585
3369.03	0.0280168
3378.67	0.0283475
3388.32	0.0281866
3397.96	0.0271939
3407.6	0.0281637
3417.24	0.0290051
3426.89	0.0282807
3436.53	0.028426
3446.17	0.0267503
3455.81	0.0269117
3465.45	0.027455
3475.1	0.0260268
3484.74	0.027192
3494.38	0.0258062
3504.02	0.0283161
3513.67	0.0289065
3523.31	0.0296645
3532.95	0.0281326
3542.59	0.0251258
3552.24	0.0286729
3561.88	0.0265745
3571.52	0.0248765
3581.16	0.0222818
3590.8	0.021427
3600.45	0.0208088
3610.09	0.0205879
3619.73	0.0210146
3629.37	0.021017
3639.02	0.0192414
3648.66	0.0212512
3658.3	0.0193258
3667.94	0.0187379
3677.59	0.0212887
3687.23	0.02164
3696.87	0.0192181
3706.51	0.0197718
3716.16	0.0193189
3725.8	0.0205155
3735.44	0.0209677
3745.08	0.0225551
3754.72	0.020869
3764.37	0.0213549
3774.01	0.0217129
3783.65	0.0211193
3793.29	0.0216464
3802.94	0.0209153
3812.58	0.0206658
3822.22	0.0227668
3831.86	0.0210736
3841.51	0.0222684
3851.15	0.0223627
3860.79	0.0214698
3870.43	0.021494
3880.07	0.0222652
3889.72	0.0241205
3899.36	0.0234466
3909	0.0221971
3918.64	0.02216
3928.29	0.022788
3937.93	0.0227444
3947.57	0.021464
3957.21	0.0234426
3966.86	0.0219529
3976.5	0.0224439
3986.14	0.0228224
3995.78	0.0235818
