Measurement: Infrared, Infrared Data Processed
Mineral: Arsenic
Rruff sample: R050653
Ideal chemistry: As
Locality: Japan
Source: University of Arizona Mineral Museum
Description: Gray massive
Measured chemistry: As
x	intensity
399.193	0.108247
408.835	0.187897
418.477	0.199662
428.12	0.163574
437.762	0.113082
447.404	0.160236
457.047	0.237048
466.689	0.321297
476.331	0.354853
485.974	0.238319
495.616	0.183841
505.258	0.1472
514.901	0.153941
524.543	0.18127
534.185	0.19217
543.828	0.190926
553.47	0.1802
563.112	0.168258
572.755	0.156046
582.397	0.158302
592.039	0.157991
601.682	0.168433
611.324	0.164862
620.966	0.176878
630.609	0.169725
640.251	0.174434
649.893	0.184145
659.536	0.197794
669.178	0.203623
678.82	0.202715
688.463	0.216426
698.105	0.230083
707.747	0.244882
717.39	0.266751
727.032	0.295601
736.674	0.321936
746.317	0.364435
755.959	0.422129
765.601	0.499497
775.244	0.569792
784.886	0.650432
794.528	0.587403
804.171	0.410056
813.813	0.28592
823.455	0.230426
833.098	0.192076
842.74	0.167522
852.382	0.107916
862.025	0.0862297
871.667	0.089758
881.309	0.094795
890.952	0.100603
900.594	0.110817
910.236	0.126943
919.879	0.132993
929.521	0.138267
939.163	0.138514
948.806	0.140559
958.448	0.145892
968.09	0.156966
977.733	0.176781
987.375	0.198091
997.017	0.215611
1006.66	0.230175
1016.3	0.246865
1025.94	0.249881
1035.59	0.265139
1045.23	0.254631
1054.87	0.238346
1064.51	0.224773
1074.16	0.217744
1083.8	0.21891
1093.44	0.215384
1103.08	0.207607
1112.72	0.198011
1122.37	0.190636
1132.01	0.182661
1141.65	0.17728
1151.3	0.170615
1160.94	0.162442
1170.58	0.154802
1180.22	0.148374
1189.86	0.140906
1199.51	0.129181
1209.15	0.11614
1218.79	0.109154
1228.43	0.106323
1238.08	0.10574
1247.72	0.105201
1257.36	0.104945
1267	0.102654
1276.64	0.100595
1286.29	0.0993479
1295.93	0.0999891
1305.57	0.100118
1315.21	0.101746
1324.86	0.103086
1334.5	0.105474
1344.14	0.106309
1353.78	0.106986
1363.43	0.107843
1373.07	0.109121
1382.71	0.11046
1392.35	0.113098
1401.99	0.11566
1411.64	0.119875
1421.28	0.122766
1430.92	0.123772
1440.57	0.123054
1450.21	0.121894
1459.85	0.121302
1469.49	0.120718
1479.13	0.119902
1488.78	0.120752
1498.42	0.120736
1508.06	0.120422
1517.7	0.120717
1527.35	0.120386
1536.99	0.120775
1546.63	0.121155
1556.27	0.121854
1565.91	0.12329
1575.56	0.123771
1585.2	0.125123
1594.84	0.126944
1604.48	0.128748
1614.13	0.12984
1623.77	0.131438
1633.41	0.131813
1643.05	0.13199
1652.7	0.132034
1662.34	0.132516
1671.98	0.132742
1681.62	0.131948
1691.27	0.13222
1700.91	0.132262
1710.55	0.131696
1720.19	0.131442
1729.84	0.132101
1739.48	0.130149
1749.12	0.130656
1758.76	0.130402
1768.4	0.130803
1778.05	0.130243
1787.69	0.130988
1797.33	0.131265
1806.97	0.131673
1816.62	0.130916
1826.26	0.131493
1835.9	0.132441
1845.54	0.133242
1855.18	0.132924
1864.83	0.132823
1874.47	0.134496
1884.11	0.135498
1893.75	0.135139
1903.4	0.134956
1913.04	0.135377
1922.68	0.136521
1932.32	0.136483
1941.97	0.134317
1951.61	0.134388
1961.25	0.136649
1970.89	0.131043
1980.54	0.137824
1990.18	0.139965
1999.82	0.136484
2009.46	0.136729
2019.11	0.135424
2028.75	0.137224
2038.39	0.139951
2048.03	0.14058
2057.67	0.144176
2067.32	0.142423
2076.96	0.142091
2086.6	0.143116
2096.24	0.143034
2105.89	0.144252
2115.53	0.145415
2125.17	0.144293
2134.81	0.142259
2144.45	0.145436
2154.1	0.139738
2163.74	0.147286
2173.38	0.145399
2183.02	0.152584
2192.67	0.15216
2202.31	0.151814
2211.95	0.153184
2221.59	0.151101
2231.24	0.154848
2240.88	0.153734
2250.52	0.155823
2260.16	0.158482
2269.8	0.157433
2279.45	0.16023
2289.09	0.160354
2298.73	0.161237
2308.38	0.161594
2318.02	0.163707
2327.66	0.164319
2337.3	0.164678
2346.94	0.165437
2356.59	0.16492
2366.23	0.166039
2375.87	0.166101
2385.51	0.164364
2395.16	0.166852
2404.8	0.168298
2414.44	0.168453
2424.08	0.171045
2433.72	0.171738
2443.37	0.170622
2453.01	0.172428
2462.65	0.170496
2472.29	0.174355
2481.94	0.173846
2491.58	0.174287
2501.22	0.174624
2510.86	0.175509
2520.51	0.177267
2530.15	0.177506
2539.79	0.177146
2549.43	0.177574
2559.07	0.179012
2568.72	0.180286
2578.36	0.178383
2588	0.18064
2597.64	0.18078
2607.29	0.18223
2616.93	0.182628
2626.57	0.185179
2636.21	0.186122
2645.86	0.186161
2655.5	0.187559
2665.14	0.187386
2674.78	0.187626
2684.43	0.188648
2694.07	0.189835
2703.71	0.192007
2713.35	0.19291
2722.99	0.194544
2732.64	0.196079
2742.28	0.19637
2751.92	0.199957
2761.56	0.199124
2771.21	0.201984
2780.85	0.202626
2790.49	0.204217
2800.13	0.207229
2809.78	0.207827
2819.42	0.209707
2829.06	0.211607
2838.7	0.216386
2848.34	0.220177
2857.99	0.218106
2867.63	0.217793
2877.27	0.222138
2886.91	0.223666
2896.56	0.227022
2906.2	0.229727
2915.84	0.23461
2925.48	0.236023
2935.13	0.232768
2944.77	0.234062
2954.41	0.233333
2964.05	0.235766
2973.7	0.235449
2983.34	0.23569
2992.98	0.237698
3002.62	0.238503
3012.26	0.239367
3021.91	0.241116
3031.55	0.241975
3041.19	0.244113
3050.83	0.245903
3060.48	0.245838
3070.12	0.245545
3079.76	0.245625
3089.4	0.244383
3099.05	0.246768
3108.69	0.246053
3118.33	0.246394
3127.97	0.24836
3137.61	0.247585
3147.26	0.248781
3156.9	0.249948
3166.54	0.248503
3176.18	0.251106
3185.83	0.252809
3195.47	0.256089
3205.11	0.255117
3214.75	0.253838
3224.4	0.256144
3234.04	0.253213
3243.68	0.254761
3253.32	0.253912
3262.97	0.251765
3272.61	0.252729
3282.25	0.250588
3291.89	0.250345
3301.53	0.250074
3311.18	0.249792
3320.82	0.247753
3330.46	0.246474
3340.1	0.243995
3349.75	0.244357
3359.39	0.240211
3369.03	0.24007
3378.67	0.235588
3388.32	0.23707
3397.96	0.234827
3407.6	0.234134
3417.24	0.233251
3426.89	0.231082
3436.53	0.230826
3446.17	0.228056
3455.81	0.231515
3465.45	0.226949
3475.1	0.225844
3484.74	0.223209
3494.38	0.225909
3504.02	0.220408
3513.67	0.222223
3523.31	0.22347
3532.95	0.21954
3542.59	0.216828
3552.24	0.21997
3561.88	0.214227
3571.52	0.219401
3581.16	0.216263
3590.8	0.214448
3600.45	0.218119
3610.09	0.221537
3619.73	0.234056
3629.37	0.228537
3639.02	0.227553
3648.66	0.224403
3658.3	0.222243
3667.94	0.218768
3677.59	0.216447
3687.23	0.214201
3696.87	0.219712
3706.51	0.21778
3716.16	0.212598
3725.8	0.215848
3735.44	0.21577
3745.08	0.213735
3754.72	0.212303
3764.37	0.21498
3774.01	0.216823
3783.65	0.2165
3793.29	0.217768
3802.94	0.219203
3812.58	0.218713
3822.22	0.216379
3831.86	0.217131
3841.51	0.219931
3851.15	0.225571
3860.79	0.218265
3870.43	0.221206
3880.07	0.225814
3889.72	0.225091
3899.36	0.215749
3909	0.224028
3918.64	0.226746
3928.29	0.221704
3937.93	0.224644
3947.57	0.224182
3957.21	0.222787
3966.86	0.226158
3976.5	0.223769
3986.14	0.226023
3995.78	0.229064
