Measurement: Infrared, Infrared Data Processed
Mineral: Arsenopyrite
Rruff sample: R050071
Ideal chemistry: Fe^3+^(AsS)^3-^
Locality: Yaogangxian mine, Yizhang County, Hunan Province, China
Source: Rock Currier
Description: Steel-gray tabular
Measured chemistry: FeAsS
x	intensity
399.193	0
408.835	0.166245
418.477	0.174564
428.12	0.181586
437.762	0.176925
447.404	0.140856
457.047	0.150779
466.689	0.161491
476.331	0.165936
485.974	0.170185
495.616	0.172253
505.258	0.175657
514.901	0.178334
524.543	0.180621
534.185	0.183383
543.828	0.183945
553.47	0.186699
563.112	0.188264
572.755	0.189773
582.397	0.191153
592.039	0.193154
601.682	0.194832
611.324	0.196361
620.966	0.197743
630.609	0.197923
640.251	0.198978
649.893	0.199914
659.536	0.201329
669.178	0.201608
678.82	0.202482
688.463	0.203256
698.105	0.204432
707.747	0.205397
717.39	0.206823
727.032	0.207437
736.674	0.208704
746.317	0.209828
755.959	0.210708
765.601	0.21164
775.244	0.212545
784.886	0.213579
794.528	0.214469
804.171	0.215578
813.813	0.216591
823.455	0.217277
833.098	0.218356
842.74	0.218904
852.382	0.219694
862.025	0.220289
871.667	0.220844
881.309	0.221354
890.952	0.222061
900.594	0.222721
910.236	0.223181
919.879	0.224118
929.521	0.224554
939.163	0.225618
948.806	0.226321
958.448	0.227732
968.09	0.228694
977.733	0.2295
987.375	0.23076
997.017	0.231831
1006.66	0.233042
1016.3	0.23402
1025.94	0.235218
1035.59	0.236337
1045.23	0.23765
1054.87	0.238688
1064.51	0.239402
1074.16	0.23995
1083.8	0.241275
1093.44	0.242004
1103.08	0.243397
1112.72	0.244237
1122.37	0.245265
1132.01	0.246567
1141.65	0.247692
1151.3	0.247977
1160.94	0.2482
1170.58	0.248337
1180.22	0.249032
1189.86	0.250293
1199.51	0.251007
1209.15	0.25149
1218.79	0.251825
1228.43	0.252439
1238.08	0.25305
1247.72	0.25348
1257.36	0.254444
1267	0.254998
1276.64	0.255674
1286.29	0.256648
1295.93	0.257658
1305.57	0.2584
1315.21	0.259544
1324.86	0.259953
1334.5	0.260951
1344.14	0.262194
1353.78	0.26274
1363.43	0.263751
1373.07	0.264657
1382.71	0.265339
1392.35	0.266275
1401.99	0.267197
1411.64	0.268225
1421.28	0.269216
1430.92	0.269974
1440.57	0.270585
1450.21	0.271626
1459.85	0.272018
1469.49	0.272084
1479.13	0.272973
1488.78	0.273481
1498.42	0.274253
1508.06	0.27466
1517.7	0.275441
1527.35	0.276571
1536.99	0.277251
1546.63	0.278059
1556.27	0.278324
1565.91	0.279223
1575.56	0.280133
1585.2	0.280783
1594.84	0.281667
1604.48	0.282261
1614.13	0.283106
1623.77	0.283626
1633.41	0.283793
1643.05	0.284117
1652.7	0.284513
1662.34	0.285469
1671.98	0.285795
1681.62	0.285989
1691.27	0.286463
1700.91	0.286889
1710.55	0.287936
1720.19	0.28883
1729.84	0.289019
1739.48	0.289319
1749.12	0.289253
1758.76	0.289347
1768.4	0.289208
1778.05	0.289871
1787.69	0.290788
1797.33	0.290585
1806.97	0.291853
1816.62	0.291598
1826.26	0.291532
1835.9	0.291661
1845.54	0.292113
1855.18	0.292215
1864.83	0.292639
1874.47	0.291932
1884.11	0.291978
1893.75	0.292714
1903.4	0.292428
1913.04	0.293193
1922.68	0.292611
1932.32	0.290514
1941.97	0.291151
1951.61	0.288621
1961.25	0.288032
1970.89	0.285323
1980.54	0.28779
1990.18	0.288468
1999.82	0.290246
2009.46	0.286778
2019.11	0.287299
2028.75	0.28737
2038.39	0.292586
2048.03	0.295277
2057.67	0.29501
2067.32	0.296922
2076.96	0.300103
2086.6	0.301653
2096.24	0.301127
2105.89	0.30145
2115.53	0.302371
2125.17	0.301853
2134.81	0.298563
2144.45	0.296427
2154.1	0.292867
2163.74	0.295827
2173.38	0.299425
2183.02	0.295634
2192.67	0.298826
2202.31	0.303378
2211.95	0.302523
2221.59	0.305608
2231.24	0.30549
2240.88	0.307137
2250.52	0.309364
2260.16	0.310409
2269.8	0.312066
2279.45	0.31514
2289.09	0.31582
2298.73	0.316343
2308.38	0.317932
2318.02	0.318948
2327.66	0.319699
2337.3	0.319175
2346.94	0.320779
2356.59	0.320391
2366.23	0.319359
2375.87	0.319543
2385.51	0.320482
2395.16	0.320554
2404.8	0.321888
2414.44	0.32127
2424.08	0.321774
2433.72	0.321892
2443.37	0.323151
2453.01	0.323286
2462.65	0.324128
2472.29	0.324187
2481.94	0.321822
2491.58	0.324852
2501.22	0.325526
2510.86	0.326459
2520.51	0.326009
2530.15	0.326338
2539.79	0.328206
2549.43	0.328134
2559.07	0.326576
2568.72	0.328589
2578.36	0.328989
2588	0.329718
2597.64	0.33133
2607.29	0.331632
2616.93	0.333405
2626.57	0.333383
2636.21	0.335108
2645.86	0.336339
2655.5	0.336472
2665.14	0.336948
2674.78	0.336982
2684.43	0.337431
2694.07	0.337749
2703.71	0.339189
2713.35	0.338726
2722.99	0.339376
2732.64	0.339342
2742.28	0.340721
2751.92	0.340299
2761.56	0.340543
2771.21	0.340539
2780.85	0.341465
2790.49	0.341492
2800.13	0.34207
2809.78	0.341497
2819.42	0.342743
2829.06	0.343826
2838.7	0.344132
2848.34	0.344534
2857.99	0.342928
2867.63	0.344181
2877.27	0.344331
2886.91	0.345278
2896.56	0.345455
2906.2	0.345826
2915.84	0.346923
2925.48	0.346052
2935.13	0.345404
2944.77	0.345514
2954.41	0.345495
2964.05	0.345473
2973.7	0.347254
2983.34	0.34631
2992.98	0.348549
3002.62	0.347501
3012.26	0.348176
3021.91	0.347735
3031.55	0.349679
3041.19	0.348558
3050.83	0.34925
3060.48	0.349492
3070.12	0.349622
3079.76	0.349798
3089.4	0.350248
3099.05	0.350403
3108.69	0.350864
3118.33	0.3513
3127.97	0.351642
3137.61	0.352225
3147.26	0.352323
3156.9	0.353361
3166.54	0.354158
3176.18	0.354988
3185.83	0.35364
3195.47	0.354105
3205.11	0.35359
3214.75	0.356788
3224.4	0.354883
3234.04	0.355707
3243.68	0.355459
3253.32	0.356343
3262.97	0.3561
3272.61	0.358175
3282.25	0.358285
3291.89	0.359038
3301.53	0.358697
3311.18	0.358797
3320.82	0.35833
3330.46	0.359622
3340.1	0.357141
3349.75	0.359175
3359.39	0.35797
3369.03	0.359439
3378.67	0.36132
3388.32	0.361347
3397.96	0.361597
3407.6	0.36207
3417.24	0.360413
3426.89	0.361989
3436.53	0.362364
3446.17	0.359441
3455.81	0.364385
3465.45	0.364108
3475.1	0.363429
3484.74	0.364621
3494.38	0.365023
3504.02	0.364189
3513.67	0.365098
3523.31	0.363437
3532.95	0.362407
3542.59	0.365063
3552.24	0.3636
3561.88	0.365839
3571.52	0.366675
3581.16	0.365017
3590.8	0.365301
3600.45	0.364522
3610.09	0.367731
3619.73	0.36973
3629.37	0.371329
3639.02	0.368751
3648.66	0.369651
3658.3	0.370319
3667.94	0.36864
3677.59	0.372028
3687.23	0.370893
3696.87	0.371433
3706.51	0.372264
3716.16	0.371762
3725.8	0.372379
3735.44	0.374445
3745.08	0.376249
3754.72	0.374352
3764.37	0.375239
3774.01	0.375078
3783.65	0.376107
3793.29	0.376573
3802.94	0.376791
3812.58	0.377273
3822.22	0.377728
3831.86	0.378171
3841.51	0.378376
3851.15	0.378787
3860.79	0.377349
3870.43	0.380798
3880.07	0.38157
3889.72	0.383194
3899.36	0.379504
3909	0.381649
3918.64	0.381791
3928.29	0.382493
3937.93	0.381207
3947.57	0.381727
3957.21	0.385015
3966.86	0.382383
3976.5	0.383001
3986.14	0.383939
3995.78	0.384258
