Measurement: Infrared, Infrared Data Processed
Mineral: Augelite
Rruff sample: R050100
Ideal chemistry: Al_2_PO_4_(OH)_3_
Locality: Rapid Creek, Yukon Territory, Canada
Source: Rock Currier
Description: Pale green thick tabular crystals
Measured chemistry: Al_2.00_(P_1.00_O_4_)(OH_0.98_F_0.02_)_3_
x	intensity
399.193	0
408.835	0.144124
418.477	0.13439
428.12	0.143373
437.762	0.131957
447.404	0.100188
457.047	0.0782437
466.689	0.0640272
476.331	0.0650182
485.974	0.0710814
495.616	0.0785307
505.258	0.0881597
514.901	0.105317
524.543	0.128028
534.185	0.149718
543.828	0.159764
553.47	0.159826
563.112	0.14064
572.755	0.123371
582.397	0.110653
592.039	0.110381
601.682	0.122363
611.324	0.125529
620.966	0.114801
630.609	0.120834
640.251	0.116867
649.893	0.10519
659.536	0.0870775
669.178	0.0673615
678.82	0.0546715
688.463	0.0544091
698.105	0.0697933
707.747	0.101631
717.39	0.108312
727.032	0.0734002
736.674	0.0398531
746.317	0.0287156
755.959	0.0261285
765.601	0.0282923
775.244	0.0324923
784.886	0.039835
794.528	0.0493947
804.171	0.0613177
813.813	0.0748776
823.455	0.0877534
833.098	0.0912537
842.74	0.0821699
852.382	0.0680997
862.025	0.059683
871.667	0.0599414
881.309	0.0687732
890.952	0.0830366
900.594	0.101088
910.236	0.122748
919.879	0.137482
929.521	0.132814
939.163	0.110875
948.806	0.0916756
958.448	0.0867487
968.09	0.0958164
977.733	0.115394
987.375	0.146232
997.017	0.184133
1006.66	0.200977
1016.3	0.19643
1025.94	0.165128
1035.59	0.132413
1045.23	0.11265
1054.87	0.111577
1064.51	0.128942
1074.16	0.131978
1083.8	0.121461
1093.44	0.106641
1103.08	0.103776
1112.72	0.0977467
1122.37	0.100052
1132.01	0.115861
1141.65	0.137459
1151.3	0.138944
1160.94	0.128141
1170.58	0.117989
1180.22	0.108612
1189.86	0.0993094
1199.51	0.0884187
1209.15	0.0744988
1218.79	0.0577825
1228.43	0.0396812
1238.08	0.0220349
1247.72	0.0117251
1257.36	0.00775689
1267	0.00601728
1276.64	0.00443117
1286.29	0.00390922
1295.93	0.00332635
1305.57	0.00302534
1315.21	0.00259922
1324.86	0.00246394
1334.5	0.00244971
1344.14	0.00242171
1353.78	0.00203378
1363.43	0.00205987
1373.07	0.00185718
1382.71	0.00161671
1392.35	0.00163999
1401.99	0.00160262
1411.64	0.00172562
1421.28	0.00166767
1430.92	0.00157447
1440.57	0.0016692
1450.21	0.00172649
1459.85	0.00168525
1469.49	0.00151616
1479.13	0.00186981
1488.78	0.0017314
1498.42	0.00173135
1508.06	0.00244545
1517.7	0.00222898
1527.35	0.00249728
1536.99	0.00291178
1546.63	0.00282549
1556.27	0.00277372
1565.91	0.00300941
1575.56	0.00280141
1585.2	0.00293787
1594.84	0.0030951
1604.48	0.00303192
1614.13	0.00335904
1623.77	0.00348858
1633.41	0.00362868
1643.05	0.00367725
1652.7	0.00379414
1662.34	0.00334581
1671.98	0.00304299
1681.62	0.00280153
1691.27	0.00275313
1700.91	0.00253501
1710.55	0.00237769
1720.19	0.00240512
1729.84	0.00265354
1739.48	0.00226269
1749.12	0.00216056
1758.76	0.00261686
1768.4	0.00292602
1778.05	0.00323754
1787.69	0.00328893
1797.33	0.00259243
1806.97	0.00200774
1816.62	0.00209209
1826.26	0.00193981
1835.9	0.00220723
1845.54	0.00229813
1855.18	0.00134788
1864.83	0.00133223
1874.47	0.00154958
1884.11	0.00184234
1893.75	0.00207934
1903.4	0.00186871
1913.04	0.00272986
1922.68	0.00263112
1932.32	0.00129802
1941.97	0.000801961
1951.61	0.000491473
1961.25	0.0022147
1970.89	0.000249663
1980.54	0.00466266
1990.18	0.00392935
1999.82	0.00129289
2009.46	0.00242129
2019.11	-8.21698e-05
2028.75	0.000461052
2038.39	0.00228237
2048.03	0.000698199
2057.67	0.00178411
2067.32	0.00184386
2076.96	0.00155491
2086.6	0.00188547
2096.24	0.00294278
2105.89	0.00263415
2115.53	0.00234419
2125.17	-0.000415168
2134.81	-0.000512923
2144.45	-0.00016777
2154.1	-0.00561309
2163.74	-0.000774791
2173.38	0.000173392
2183.02	0.00134877
2192.67	0.000839176
2202.31	-0.000532469
2211.95	0.000566015
2221.59	0.000849557
2231.24	0.000926319
2240.88	0.00114691
2250.52	-4.73957e-05
2260.16	0.00234338
2269.8	0.0013563
2279.45	0.0017056
2289.09	0.0019641
2298.73	0.00173002
2308.38	0.00153177
2318.02	0.00205536
2327.66	0.002383
2337.3	0.00201067
2346.94	0.00144151
2356.59	0.00209007
2366.23	0.00107683
2375.87	0.000964848
2385.51	0.00116126
2395.16	0.000357517
2404.8	0.00163058
2414.44	0.00137474
2424.08	0.00239023
2433.72	0.002013
2443.37	0.00320533
2453.01	0.00322655
2462.65	0.00362807
2472.29	0.00279888
2481.94	0.00315847
2491.58	0.0029511
2501.22	0.00319499
2510.86	0.00350124
2520.51	0.00431746
2530.15	0.00373826
2539.79	0.00343228
2549.43	0.00419549
2559.07	0.00394448
2568.72	0.00401
2578.36	0.00470329
2588	0.00464701
2597.64	0.00418105
2607.29	0.004184
2616.93	0.00386116
2626.57	0.00487064
2636.21	0.00432172
2645.86	0.0045565
2655.5	0.00443248
2665.14	0.00386544
2674.78	0.00373414
2684.43	0.00307847
2694.07	0.0037986
2703.71	0.00441273
2713.35	0.00406486
2722.99	0.00341306
2732.64	0.00418526
2742.28	0.0046347
2751.92	0.00459635
2761.56	0.00438809
2771.21	0.00473468
2780.85	0.00484829
2790.49	0.00532045
2800.13	0.00502959
2809.78	0.00515976
2819.42	0.00546317
2829.06	0.00541501
2838.7	0.00601349
2848.34	0.00571986
2857.99	0.00502154
2867.63	0.00539725
2877.27	0.00544011
2886.91	0.00567568
2896.56	0.00638108
2906.2	0.00652555
2915.84	0.00673086
2925.48	0.00578338
2935.13	0.00595995
2944.77	0.00613031
2954.41	0.00614302
2964.05	0.00738663
2973.7	0.00630917
2983.34	0.00658247
2992.98	0.00659498
3002.62	0.00698727
3012.26	0.00737211
3021.91	0.00842581
3031.55	0.00755297
3041.19	0.00835517
3050.83	0.00777174
3060.48	0.00921388
3070.12	0.00934136
3079.76	0.00951921
3089.4	0.00930089
3099.05	0.00947066
3108.69	0.0106728
3118.33	0.0107432
3127.97	0.0118208
3137.61	0.0118691
3147.26	0.0124505
3156.9	0.0134723
3166.54	0.0129849
3176.18	0.0142857
3185.83	0.0142636
3195.47	0.0142349
3205.11	0.0154661
3214.75	0.016907
3224.4	0.0176694
3234.04	0.018517
3243.68	0.018403
3253.32	0.0195445
3262.97	0.0208852
3272.61	0.020645
3282.25	0.0235082
3291.89	0.0245595
3301.53	0.0265828
3311.18	0.0280118
3320.82	0.0281163
3330.46	0.0317613
3340.1	0.0323245
3349.75	0.0341472
3359.39	0.0376172
3369.03	0.0412261
3378.67	0.0452379
3388.32	0.0496393
3397.96	0.0550456
3407.6	0.0601058
3417.24	0.0688714
3426.89	0.0738304
3436.53	0.0797579
3446.17	0.0885091
3455.81	0.103017
3465.45	0.120643
3475.1	0.114233
3484.74	0.0948258
3494.38	0.0797873
3504.02	0.0746487
3513.67	0.0767679
3523.31	0.0858959
3532.95	0.0955137
3542.59	0.103527
3552.24	0.0911916
3561.88	0.0603403
3571.52	0.0358551
3581.16	0.024236
3590.8	0.0182576
3600.45	0.0182927
3610.09	0.0133777
3619.73	0.00477975
3629.37	0.00204548
3639.02	0.00107933
3648.66	-0.00130177
3658.3	-0.000737758
3667.94	-0.00182825
3677.59	-0.0019692
3687.23	-0.00340526
3696.87	-0.00427309
3706.51	-0.00487407
3716.16	-0.00194758
3725.8	-0.00378165
3735.44	-0.00336675
3745.08	-0.00247686
3754.72	-0.00447585
3764.37	-0.00489459
3774.01	-0.00463659
3783.65	-0.0048259
3793.29	-0.00378644
3802.94	-0.00553683
3812.58	-0.00418971
3822.22	-0.00396739
3831.86	-0.00411194
3841.51	-0.00421054
3851.15	-0.00367766
3860.79	-0.00278982
3870.43	-0.0025317
3880.07	-0.00501142
3889.72	-0.00405479
3899.36	-0.00363576
3909	-0.00380033
3918.64	-0.00470166
3928.29	-0.00501409
3937.93	-0.00358361
3947.57	-0.00194249
3957.21	-0.00342667
3966.86	-0.00668252
3976.5	-0.00316941
3986.14	-0.00598748
3995.78	-0.00431922
