Measurement: Infrared, Infrared Data Processed
Mineral: Augelite
Rruff sample: R050316
Ideal chemistry: Al_2_PO_4_(OH)_3_
Locality: Rapid Creek, Yukon Territory, Canada
Source: Eugene Schlepp
Description: Pale green thick prismatic crystals
Measured chemistry: Al_2.00_(P_1.00_O_4_)(OH)_3_
x	intensity
399.193	0.185519
408.835	0.166976
418.477	0.162397
428.12	0.176053
437.762	0.158083
447.404	0.118577
457.047	0.0942046
466.689	0.0770273
476.331	0.0807448
485.974	0.0920458
495.616	0.103357
505.258	0.116488
514.901	0.139665
524.543	0.175816
534.185	0.2043
543.828	0.21394
553.47	0.206692
563.112	0.177309
572.755	0.151821
582.397	0.138511
592.039	0.139556
601.682	0.156338
611.324	0.160558
620.966	0.150165
630.609	0.161431
640.251	0.152308
649.893	0.135431
659.536	0.111047
669.178	0.0860025
678.82	0.0698992
688.463	0.0706367
698.105	0.0907474
707.747	0.136564
717.39	0.140482
727.032	0.0925634
736.674	0.0503716
746.317	0.0370768
755.959	0.0340652
765.601	0.0352397
775.244	0.0403683
784.886	0.0485462
794.528	0.0605004
804.171	0.0777413
813.813	0.0983133
823.455	0.117987
833.098	0.124527
842.74	0.110268
852.382	0.0885755
862.025	0.0745088
871.667	0.0727934
881.309	0.0831972
890.952	0.103361
900.594	0.131434
910.236	0.167163
919.879	0.191091
929.521	0.1794
939.163	0.143723
948.806	0.113683
958.448	0.106065
968.09	0.119597
977.733	0.151597
987.375	0.200318
997.017	0.259201
1006.66	0.277016
1016.3	0.258215
1025.94	0.210438
1035.59	0.16473
1045.23	0.138721
1054.87	0.142143
1064.51	0.173791
1074.16	0.18023
1083.8	0.164032
1093.44	0.141364
1103.08	0.136682
1112.72	0.126778
1122.37	0.126076
1132.01	0.146785
1141.65	0.179579
1151.3	0.182385
1160.94	0.165374
1170.58	0.148565
1180.22	0.133903
1189.86	0.122716
1199.51	0.111507
1209.15	0.0948601
1218.79	0.0736942
1228.43	0.0491654
1238.08	0.0276635
1247.72	0.0150445
1257.36	0.00962713
1267	0.00769914
1276.64	0.0065046
1286.29	0.00607212
1295.93	0.00547703
1305.57	0.00473288
1315.21	0.00411512
1324.86	0.00419547
1334.5	0.00410523
1344.14	0.00364368
1353.78	0.00342135
1363.43	0.00280319
1373.07	0.00297493
1382.71	0.00314516
1392.35	0.00320888
1401.99	0.00287861
1411.64	0.00319112
1421.28	0.00288074
1430.92	0.00302028
1440.57	0.0028046
1450.21	0.00211665
1459.85	0.00190479
1469.49	0.0025272
1479.13	0.00375362
1488.78	0.00374604
1498.42	0.00356868
1508.06	0.00406526
1517.7	0.00466486
1527.35	0.00463869
1536.99	0.0044984
1546.63	0.00424338
1556.27	0.00514292
1565.91	0.00440089
1575.56	0.00505059
1585.2	0.00486771
1594.84	0.00495267
1604.48	0.00510005
1614.13	0.00540088
1623.77	0.00567109
1633.41	0.00536702
1643.05	0.00553015
1652.7	0.00545599
1662.34	0.00480233
1671.98	0.00465705
1681.62	0.0043636
1691.27	0.00410557
1700.91	0.004329
1710.55	0.00267312
1720.19	0.00277777
1729.84	0.00217101
1739.48	9.1589e-05
1749.12	0.000263279
1758.76	0.00277086
1768.4	0.00458366
1778.05	0.0049504
1787.69	0.00483269
1797.33	0.00502777
1806.97	0.00500202
1816.62	0.00374631
1826.26	0.00206667
1835.9	0.00245294
1845.54	0.00258771
1855.18	0.00206286
1864.83	0.00311156
1874.47	0.00293128
1884.11	0.00304034
1893.75	0.00339916
1903.4	0.00443231
1913.04	0.00352753
1922.68	0.00379128
1932.32	0.00238899
1941.97	0.0015515
1951.61	0.000543552
1961.25	-3.769e-05
1970.89	-0.00200104
1980.54	-0.00208651
1990.18	-0.00127709
1999.82	0.000409994
2009.46	-0.00162767
2019.11	0.000831038
2028.75	-0.00294136
2038.39	-0.0025222
2048.03	-0.00202534
2057.67	-0.000400326
2067.32	0.0011081
2076.96	-2.44989e-05
2086.6	0.00359036
2096.24	-0.000440737
2105.89	0.00191947
2115.53	0.000916822
2125.17	-0.00156809
2134.81	-0.00208081
2144.45	-0.00171907
2154.1	-0.00730841
2163.74	-0.00430642
2173.38	-0.0042084
2183.02	-0.000752754
2192.67	-0.000354475
2202.31	0.00230868
2211.95	0.000180312
2221.59	0.00224677
2231.24	-4.26566e-05
2240.88	0.000839974
2250.52	0.000258937
2260.16	0.00604484
2269.8	0.00183558
2279.45	0.00232489
2289.09	0.00295536
2298.73	0.00360414
2308.38	0.0043523
2318.02	0.0051082
2327.66	0.00444993
2337.3	0.0057292
2346.94	0.00540544
2356.59	0.00467881
2366.23	0.00563777
2375.87	0.00460955
2385.51	0.00391108
2395.16	0.00491006
2404.8	0.00410228
2414.44	0.00276645
2424.08	0.00477392
2433.72	0.00340943
2443.37	0.0055397
2453.01	0.00570022
2462.65	0.00557309
2472.29	0.0062411
2481.94	0.00862758
2491.58	0.00664507
2501.22	0.00806181
2510.86	0.00689483
2520.51	0.00610268
2530.15	0.00832626
2539.79	0.00728934
2549.43	0.00801562
2559.07	0.00795745
2568.72	0.00793789
2578.36	0.00775337
2588	0.00824096
2597.64	0.0082656
2607.29	0.00878146
2616.93	0.00779942
2626.57	0.00823316
2636.21	0.00943598
2645.86	0.00937884
2655.5	0.00827474
2665.14	0.00738308
2674.78	0.00876034
2684.43	0.00869039
2694.07	0.00816577
2703.71	0.00908728
2713.35	0.00963954
2722.99	0.0098023
2732.64	0.0086883
2742.28	0.00822157
2751.92	0.0105151
2761.56	0.00892867
2771.21	0.00897594
2780.85	0.0110495
2790.49	0.00937483
2800.13	0.0088366
2809.78	0.0109948
2819.42	0.0108237
2829.06	0.0103108
2838.7	0.0105737
2848.34	0.011014
2857.99	0.0113803
2867.63	0.00901433
2877.27	0.011457
2886.91	0.0113429
2896.56	0.0121753
2906.2	0.0118392
2915.84	0.0145596
2925.48	0.0109939
2935.13	0.0124754
2944.77	0.0126821
2954.41	0.0101307
2964.05	0.0125222
2973.7	0.0111533
2983.34	0.0160728
2992.98	0.0155934
3002.62	0.0156152
3012.26	0.014839
3021.91	0.017127
3031.55	0.0138598
3041.19	0.0161666
3050.83	0.0151444
3060.48	0.0162194
3070.12	0.0149944
3079.76	0.0165849
3089.4	0.0178735
3099.05	0.016676
3108.69	0.017769
3118.33	0.0181842
3127.97	0.0176362
3137.61	0.0201338
3147.26	0.0200008
3156.9	0.0183903
3166.54	0.0217137
3176.18	0.021912
3185.83	0.0211206
3195.47	0.0229568
3205.11	0.0244198
3214.75	0.0215054
3224.4	0.0236891
3234.04	0.0237494
3243.68	0.0255166
3253.32	0.027065
3262.97	0.0285464
3272.61	0.0281218
3282.25	0.0303179
3291.89	0.0363797
3301.53	0.0320688
3311.18	0.0371127
3320.82	0.0387249
3330.46	0.0424308
3340.1	0.0471341
3349.75	0.0475058
3359.39	0.0499624
3369.03	0.0564208
3378.67	0.0576488
3388.32	0.0665502
3397.96	0.0725426
3407.6	0.0815386
3417.24	0.0917813
3426.89	0.100522
3436.53	0.108784
3446.17	0.123447
3455.81	0.142391
3465.45	0.169652
3475.1	0.160078
3484.74	0.128635
3494.38	0.111092
3504.02	0.0969482
3513.67	0.101909
3523.31	0.113484
3532.95	0.133232
3542.59	0.145513
3552.24	0.128915
3561.88	0.0921431
3571.52	0.052826
3581.16	0.0347604
3590.8	0.0279736
3600.45	0.020459
3610.09	0.0210907
3619.73	0.0170881
3629.37	0.00750013
3639.02	0.00409268
3648.66	0.00580911
3658.3	0.00316733
3667.94	0.00781578
3677.59	0.00504513
3687.23	0.00275798
3696.87	0.0027971
3706.51	0.00611226
3716.16	0.00467529
3725.8	0.000870438
3735.44	0.00558905
3745.08	0.00348333
3754.72	0.00373942
3764.37	0.00504895
3774.01	0.00443859
3783.65	0.00614521
3793.29	0.000154225
3802.94	0.0040686
3812.58	0.00661221
3822.22	0.00458393
3831.86	0.00461332
3841.51	0.00525175
3851.15	0.00860937
3860.79	0.004901
3870.43	0.00695385
3880.07	0.0065296
3889.72	0.00253908
3899.36	0.00670382
3909	0.00335402
3918.64	0.00616742
3928.29	0.00579701
3937.93	0.00129315
3947.57	0.00476285
3957.21	0.00538626
3966.86	0.0102123
3976.5	0.00406251
3986.14	0.00709238
3995.78	0.00679769
