Measurement: Infrared, Infrared Data Processed
Mineral: Axinite-(Fe)
Rruff sample: R040074
Ideal chemistry: Ca_4_Fe^2+^_2_Al_4_[B_2_Si_8_O_30_](OH)_2_
Locality: Luning, Nevada, USA
Source: University of Arizona Mineral Museum
Description: Pale brown wedge-shaped crystal
Measured chemistry: (Ca_0.98_Mn_0.01_)_2_(Fe_0.41_Mg_0.39_Mn_0.20_)Al_1.95_B_1.20_Si_3.90_O_15_(OH)
x	intensity
399.193	0
408.835	0.161291
418.477	0.171422
428.12	0.192629
437.762	0.165926
447.404	0.175936
457.047	0.164363
466.689	0.135306
476.331	0.124105
485.974	0.107877
495.616	0.0766016
505.258	0.102494
514.901	0.139942
524.543	0.129826
534.185	0.132948
543.828	0.155999
553.47	0.154193
563.112	0.137745
572.755	0.134342
582.397	0.145412
592.039	0.122505
601.682	0.111523
611.324	0.0868542
620.966	0.0608951
630.609	0.0489736
640.251	0.0439368
649.893	0.030998
659.536	0.0443117
669.178	0.0469354
678.82	0.0304998
688.463	0.0233914
698.105	0.0215831
707.747	0.0229046
717.39	0.0260912
727.032	0.0298986
736.674	0.0358521
746.317	0.0440111
755.959	0.05443
765.601	0.0690875
775.244	0.0907831
784.886	0.0889783
794.528	0.0809186
804.171	0.0995405
813.813	0.1267
823.455	0.154555
833.098	0.16668
842.74	0.18419
852.382	0.204668
862.025	0.2082
871.667	0.21356
881.309	0.208822
890.952	0.196699
900.594	0.172336
910.236	0.176126
919.879	0.196766
929.521	0.196917
939.163	0.184691
948.806	0.162605
958.448	0.131308
968.09	0.106351
977.733	0.103751
987.375	0.112553
997.017	0.120385
1006.66	0.131517
1016.3	0.110101
1025.94	0.110519
1035.59	0.13921
1045.23	0.140317
1054.87	0.121071
1064.51	0.119971
1074.16	0.115986
1083.8	0.0888873
1093.44	0.0690767
1103.08	0.0598427
1112.72	0.0490915
1122.37	0.0379776
1132.01	0.0290635
1141.65	0.0225514
1151.3	0.0145495
1160.94	0.0103869
1170.58	0.0077757
1180.22	0.00670242
1189.86	0.00552138
1199.51	0.0043815
1209.15	0.00372347
1218.79	0.00339747
1228.43	0.00287522
1238.08	0.00250583
1247.72	0.00241223
1257.36	0.00195093
1267	0.00182748
1276.64	0.00161623
1286.29	0.00161495
1295.93	0.00149793
1305.57	0.00170198
1315.21	0.00151224
1324.86	0.00158734
1334.5	0.00185996
1344.14	0.00208485
1353.78	0.00214633
1363.43	0.00278037
1373.07	0.00273663
1382.71	0.00270792
1392.35	0.00261742
1401.99	0.00272894
1411.64	0.00304684
1421.28	0.00313888
1430.92	0.00319678
1440.57	0.00324879
1450.21	0.00307891
1459.85	0.0030322
1469.49	0.00254503
1479.13	0.00227721
1488.78	0.00224733
1498.42	0.00254823
1508.06	0.00241905
1517.7	0.00190904
1527.35	0.00216288
1536.99	0.0025579
1546.63	0.0035121
1556.27	0.00350055
1565.91	0.00491969
1575.56	0.00441916
1585.2	0.00562258
1594.84	0.00618032
1604.48	0.00613594
1614.13	0.0051421
1623.77	0.00500929
1633.41	0.00404213
1643.05	0.00410202
1652.7	0.00260517
1662.34	0.00333696
1671.98	0.00314864
1681.62	0.00266976
1691.27	0.00320106
1700.91	0.00290723
1710.55	0.00317089
1720.19	0.00330215
1729.84	0.00336918
1739.48	0.00298486
1749.12	0.00376012
1758.76	0.00372125
1768.4	0.00390255
1778.05	0.00345049
1787.69	0.00303411
1797.33	0.00267722
1806.97	0.00245063
1816.62	0.0024594
1826.26	0.0020032
1835.9	0.00222887
1845.54	0.00197083
1855.18	0.0011988
1864.83	0.000890207
1874.47	0.00138793
1884.11	0.000750441
1893.75	0.000738706
1903.4	0.000249754
1913.04	0.000904863
1922.68	0.00017298
1932.32	-0.000128459
1941.97	-5.41972e-05
1951.61	-0.00189891
1961.25	-0.00155934
1970.89	-0.00500478
1980.54	-0.00163331
1990.18	-0.00156843
1999.82	-0.00282132
2009.46	-0.00495486
2019.11	-0.00555779
2028.75	-0.00436515
2038.39	-0.0016878
2048.03	0.00120037
2057.67	0.00077551
2067.32	0.000264703
2076.96	-0.000306351
2086.6	0.000814203
2096.24	0.000409186
2105.89	0.00266768
2115.53	-0.000115353
2125.17	0.000846109
2134.81	-0.00312386
2144.45	-0.00180444
2154.1	-0.00498352
2163.74	-0.00133493
2173.38	-0.000930608
2183.02	-0.0021228
2192.67	0.000844531
2202.31	0.000394366
2211.95	0.00175003
2221.59	0.00313559
2231.24	0.00298066
2240.88	0.00319293
2250.52	0.00217383
2260.16	0.00481329
2269.8	0.00496113
2279.45	0.00582823
2289.09	0.00635555
2298.73	0.00710036
2308.38	0.00754515
2318.02	0.00773606
2327.66	0.00700135
2337.3	0.00811717
2346.94	0.00744759
2356.59	0.00745149
2366.23	0.00731492
2375.87	0.0072098
2385.51	0.00724294
2395.16	0.00748928
2404.8	0.00569055
2414.44	0.00715073
2424.08	0.0070831
2433.72	0.00709449
2443.37	0.00671882
2453.01	0.00788573
2462.65	0.00729211
2472.29	0.00768238
2481.94	0.00826802
2491.58	0.00769926
2501.22	0.00786784
2510.86	0.0080687
2520.51	0.00697932
2530.15	0.00652413
2539.79	0.00734958
2549.43	0.00712703
2559.07	0.00832404
2568.72	0.00743343
2578.36	0.00868926
2588	0.00812973
2597.64	0.00842654
2607.29	0.00897862
2616.93	0.00917985
2626.57	0.00902768
2636.21	0.0100138
2645.86	0.00918734
2655.5	0.00894904
2665.14	0.00957773
2674.78	0.00984753
2684.43	0.00896603
2694.07	0.010265
2703.71	0.00945892
2713.35	0.00948246
2722.99	0.0102593
2732.64	0.0103417
2742.28	0.00984047
2751.92	0.01006
2761.56	0.0101803
2771.21	0.0105364
2780.85	0.00982315
2790.49	0.0096064
2800.13	0.0103391
2809.78	0.0105598
2819.42	0.0102145
2829.06	0.0104539
2838.7	0.0111247
2848.34	0.0100123
2857.99	0.00929591
2867.63	0.0114
2877.27	0.0103965
2886.91	0.0113784
2896.56	0.0107623
2906.2	0.011344
2915.84	0.00975956
2925.48	0.00972145
2935.13	0.011308
2944.77	0.0118686
2954.41	0.0120699
2964.05	0.0127451
2973.7	0.012462
2983.34	0.0124096
2992.98	0.0128282
3002.62	0.0121246
3012.26	0.012675
3021.91	0.013617
3031.55	0.0123998
3041.19	0.0129145
3050.83	0.0138976
3060.48	0.0141577
3070.12	0.0145892
3079.76	0.0140973
3089.4	0.0144075
3099.05	0.0132498
3108.69	0.0155187
3118.33	0.0140352
3127.97	0.0156032
3137.61	0.0159232
3147.26	0.0155574
3156.9	0.0162132
3166.54	0.016172
3176.18	0.01568
3185.83	0.015901
3195.47	0.0164547
3205.11	0.0171344
3214.75	0.0176731
3224.4	0.0164783
3234.04	0.0166109
3243.68	0.0185133
3253.32	0.0192163
3262.97	0.0204935
3272.61	0.0194881
3282.25	0.0202062
3291.89	0.0200958
3301.53	0.0210475
3311.18	0.0213335
3320.82	0.0224818
3330.46	0.0247136
3340.1	0.0277761
3349.75	0.0296709
3359.39	0.0353738
3369.03	0.0417956
3378.67	0.0484959
3388.32	0.0420806
3397.96	0.0293467
3407.6	0.0227017
3417.24	0.0204188
3426.89	0.0187532
3436.53	0.019665
3446.17	0.0168083
3455.81	0.0193054
3465.45	0.0185445
3475.1	0.0177031
3484.74	0.0183782
3494.38	0.0164211
3504.02	0.0202508
3513.67	0.0169166
3523.31	0.017891
3532.95	0.0175398
3542.59	0.0147823
3552.24	0.0166103
3561.88	0.0191329
3571.52	0.0193436
3581.16	0.0166185
3590.8	0.0184267
3600.45	0.016092
3610.09	0.0170147
3619.73	0.0160526
3629.37	0.0182552
3639.02	0.0164528
3648.66	0.0149923
3658.3	0.0173131
3667.94	0.0159564
3677.59	0.0150663
3687.23	0.0149018
3696.87	0.016532
3706.51	0.019193
3716.16	0.0189936
3725.8	0.0184933
3735.44	0.0184917
3745.08	0.0185905
3754.72	0.020142
3764.37	0.0194758
3774.01	0.0171281
3783.65	0.0194579
3793.29	0.0193121
3802.94	0.0186643
3812.58	0.0206571
3822.22	0.0225554
3831.86	0.0195034
3841.51	0.0224222
3851.15	0.0199753
3860.79	0.0190972
3870.43	0.019792
3880.07	0.0202402
3889.72	0.0208136
3899.36	0.0184253
3909	0.0207516
3918.64	0.0216131
3928.29	0.0194061
3937.93	0.0210708
3947.57	0.0199532
3957.21	0.0217345
3966.86	0.0207695
3976.5	0.0226699
3986.14	0.0238583
3995.78	0.0235298
