Measurement: Infrared, Infrared Data Processed
Mineral: Axinite-(Fe)
Rruff sample: R050061
Ideal chemistry: Ca_4_Fe^2+^_2_Al_4_[B_2_Si_8_O_30_](OH)_2_
Locality: Jamestown, California, USA
Source: Rock Currier
Description: Brown colored axe-head-shaped single crystals
Measured chemistry: Ca_2.00_(Fe^2+^_0.73_Mg_0.20_Mn_0.07_)Al_2.00_BSi_4_O_15_(OH)
x	intensity
399.193	0
408.835	0.224336
418.477	0.225191
428.12	0.255287
437.762	0.207755
447.404	0.227705
457.047	0.206395
466.689	0.16329
476.331	0.154269
485.974	0.127692
495.616	0.0938339
505.258	0.137026
514.901	0.174541
524.543	0.152372
534.185	0.169735
543.828	0.19345
553.47	0.189376
563.112	0.165051
572.755	0.163833
582.397	0.179942
592.039	0.147256
601.682	0.134156
611.324	0.100959
620.966	0.0691845
630.609	0.0576313
640.251	0.0518853
649.893	0.0376148
659.536	0.0579178
669.178	0.0557432
678.82	0.0383787
688.463	0.0301724
698.105	0.0278292
707.747	0.0303526
717.39	0.0341548
727.032	0.0375869
736.674	0.0430636
746.317	0.0520028
755.959	0.0650765
765.601	0.0849927
775.244	0.111599
784.886	0.103527
794.528	0.0992249
804.171	0.121235
813.813	0.154406
823.455	0.190768
833.098	0.201893
842.74	0.224853
852.382	0.249736
862.025	0.248144
871.667	0.255651
881.309	0.249199
890.952	0.23498
900.594	0.209474
910.236	0.214976
919.879	0.239923
929.521	0.238754
939.163	0.220891
948.806	0.195476
958.448	0.158308
968.09	0.127438
977.733	0.120192
987.375	0.124812
997.017	0.13978
1006.66	0.148065
1016.3	0.11988
1025.94	0.135035
1035.59	0.176278
1045.23	0.170086
1054.87	0.145593
1064.51	0.14252
1074.16	0.128094
1083.8	0.0913439
1093.44	0.0749782
1103.08	0.0662097
1112.72	0.0538307
1122.37	0.0410236
1132.01	0.0318056
1141.65	0.0247859
1151.3	0.0161577
1160.94	0.0108654
1170.58	0.00818173
1180.22	0.00681806
1189.86	0.00575037
1199.51	0.00504272
1209.15	0.00446102
1218.79	0.00416655
1228.43	0.00374517
1238.08	0.0042641
1247.72	0.00459152
1257.36	0.00506984
1267	0.00441601
1276.64	0.00479916
1286.29	0.00444165
1295.93	0.00416723
1305.57	0.00433916
1315.21	0.0045536
1324.86	0.00430717
1334.5	0.00442383
1344.14	0.00444522
1353.78	0.00495443
1363.43	0.00496281
1373.07	0.00460942
1382.71	0.00430237
1392.35	0.00426334
1401.99	0.00411566
1411.64	0.00427002
1421.28	0.00426469
1430.92	0.00430416
1440.57	0.00421504
1450.21	0.00405287
1459.85	0.00407711
1469.49	0.00368585
1479.13	0.00344667
1488.78	0.00302603
1498.42	0.00304761
1508.06	0.00295285
1517.7	0.00278504
1527.35	0.00278162
1536.99	0.00291623
1546.63	0.00326708
1556.27	0.00392041
1565.91	0.00433192
1575.56	0.0041579
1585.2	0.00495042
1594.84	0.00501539
1604.48	0.00497004
1614.13	0.00498571
1623.77	0.004669
1633.41	0.00412384
1643.05	0.003878
1652.7	0.00387531
1662.34	0.00428566
1671.98	0.00490085
1681.62	0.00444135
1691.27	0.00478362
1700.91	0.00512128
1710.55	0.00580978
1720.19	0.00565936
1729.84	0.00581031
1739.48	0.00530256
1749.12	0.00530239
1758.76	0.00512899
1768.4	0.00446268
1778.05	0.00425138
1787.69	0.00480257
1797.33	0.00433748
1806.97	0.00446447
1816.62	0.00397947
1826.26	0.00409005
1835.9	0.00394486
1845.54	0.00396473
1855.18	0.00409965
1864.83	0.00368206
1874.47	0.00331447
1884.11	0.00260548
1893.75	0.00296603
1903.4	0.00324958
1913.04	0.00308454
1922.68	0.00268419
1932.32	0.00167081
1941.97	0.00122852
1951.61	0.00118268
1961.25	-0.00049092
1970.89	-0.00116997
1980.54	0.00555613
1990.18	0.0017241
1999.82	0.000187282
2009.46	-0.00176742
2019.11	-0.000715663
2028.75	0.000408482
2038.39	0.00281031
2048.03	0.00508677
2057.67	0.00376354
2067.32	0.00283295
2076.96	0.0045719
2086.6	0.00430143
2096.24	0.00297413
2105.89	0.00384897
2115.53	0.00399273
2125.17	0.00186303
2134.81	-0.000397157
2144.45	-0.000176009
2154.1	-0.0036419
2163.74	0.00458742
2173.38	0.0036879
2183.02	0.00162636
2192.67	0.00551967
2202.31	0.00568363
2211.95	0.00295708
2221.59	0.00798567
2231.24	0.00697608
2240.88	0.00768397
2250.52	0.00765893
2260.16	0.00744542
2269.8	0.00950141
2279.45	0.00965283
2289.09	0.0102291
2298.73	0.0106499
2308.38	0.010964
2318.02	0.0114947
2327.66	0.0102027
2337.3	0.0106911
2346.94	0.00941433
2356.59	0.0101154
2366.23	0.00895246
2375.87	0.00967631
2385.51	0.00968965
2395.16	0.00949467
2404.8	0.0100258
2414.44	0.0108466
2424.08	0.0103528
2433.72	0.0104842
2443.37	0.0104323
2453.01	0.0106004
2462.65	0.0110942
2472.29	0.010521
2481.94	0.0108257
2491.58	0.0112665
2501.22	0.00949683
2510.86	0.0102994
2520.51	0.0112778
2530.15	0.0109985
2539.79	0.0104308
2549.43	0.0116108
2559.07	0.011502
2568.72	0.0119091
2578.36	0.0114296
2588	0.0125159
2597.64	0.0129597
2607.29	0.0126444
2616.93	0.012879
2626.57	0.0131414
2636.21	0.0134121
2645.86	0.0130349
2655.5	0.0131792
2665.14	0.0127411
2674.78	0.011984
2684.43	0.0120606
2694.07	0.0120728
2703.71	0.0128998
2713.35	0.0123557
2722.99	0.0126563
2732.64	0.0125731
2742.28	0.0123651
2751.92	0.01211
2761.56	0.0135243
2771.21	0.0134589
2780.85	0.0136927
2790.49	0.0132503
2800.13	0.0135413
2809.78	0.0136108
2819.42	0.0134152
2829.06	0.0131664
2838.7	0.0136519
2848.34	0.0139068
2857.99	0.0132527
2867.63	0.0132921
2877.27	0.0139457
2886.91	0.0143601
2896.56	0.0138498
2906.2	0.0138867
2915.84	0.0137347
2925.48	0.0139837
2935.13	0.0125754
2944.77	0.0145905
2954.41	0.0131065
2964.05	0.0136764
2973.7	0.0147908
2983.34	0.015883
2992.98	0.0151421
3002.62	0.0156297
3012.26	0.0147387
3021.91	0.0153726
3031.55	0.0157801
3041.19	0.0153697
3050.83	0.015541
3060.48	0.0162649
3070.12	0.0168173
3079.76	0.0159421
3089.4	0.01723
3099.05	0.0169987
3108.69	0.0165133
3118.33	0.0166678
3127.97	0.0176281
3137.61	0.0176267
3147.26	0.0183533
3156.9	0.0179328
3166.54	0.0178583
3176.18	0.0177239
3185.83	0.0174289
3195.47	0.0194007
3205.11	0.0201675
3214.75	0.0204375
3224.4	0.0193385
3234.04	0.0199833
3243.68	0.0217811
3253.32	0.0214689
3262.97	0.0220784
3272.61	0.0236037
3282.25	0.0225107
3291.89	0.0235122
3301.53	0.0241148
3311.18	0.024985
3320.82	0.0269014
3330.46	0.0271603
3340.1	0.0306902
3349.75	0.0357226
3359.39	0.0422587
3369.03	0.0530765
3378.67	0.0607455
3388.32	0.047032
3397.96	0.0306774
3407.6	0.0243966
3417.24	0.0219295
3426.89	0.0191478
3436.53	0.0196814
3446.17	0.0204168
3455.81	0.0189096
3465.45	0.0211609
3475.1	0.0169549
3484.74	0.017838
3494.38	0.0173034
3504.02	0.0181482
3513.67	0.0179961
3523.31	0.0171217
3532.95	0.0156854
3542.59	0.0181055
3552.24	0.0178392
3561.88	0.0160678
3571.52	0.0166552
3581.16	0.0157525
3590.8	0.0169906
3600.45	0.0172263
3610.09	0.0172545
3619.73	0.0146001
3629.37	0.0152177
3639.02	0.0139843
3648.66	0.0140393
3658.3	0.0140555
3667.94	0.0149338
3677.59	0.0148035
3687.23	0.0143223
3696.87	0.0139603
3706.51	0.0166942
3716.16	0.0147148
3725.8	0.0156424
3735.44	0.0156685
3745.08	0.0145594
3754.72	0.0173604
3764.37	0.0157071
3774.01	0.0146103
3783.65	0.0166242
3793.29	0.0161651
3802.94	0.017993
3812.58	0.0167147
3822.22	0.0156816
3831.86	0.0156293
3841.51	0.0152279
3851.15	0.0170344
3860.79	0.0147832
3870.43	0.0160974
3880.07	0.0171064
3889.72	0.0191582
3899.36	0.0143922
3909	0.0152215
3918.64	0.0167249
3928.29	0.0147351
3937.93	0.0151366
3947.57	0.0165964
3957.21	0.0177634
3966.86	0.0180749
3976.5	0.0170052
3986.14	0.0175508
3995.78	0.0167701
