Measurement: Infrared, Infrared Data Processed
Mineral: Azurite
Rruff sample: R050638
Ideal chemistry: Cu^2+^_3_(CO_3_)_2_(OH)_2_
Locality: Zacatecas, Mexico
Source: University of Arizona Mineral Museum
Description: Blue bladed crystals
Measured chemistry: Cu_3.00_(CO_3_)_2_(OH)_2_
x	intensity
399.193	0
408.835	0.164484
418.477	0.122232
428.12	0.129696
437.762	0.187266
447.404	0.273417
457.047	0.218241
466.689	0.138303
476.331	0.109139
485.974	0.145786
495.616	0.150616
505.258	0.103569
514.901	0.0658427
524.543	0.0557385
534.185	0.0493362
543.828	0.0452592
553.47	0.0424908
563.112	0.0418285
572.755	0.040206
582.397	0.0400493
592.039	0.039401
601.682	0.0393032
611.324	0.0399726
620.966	0.0403091
630.609	0.0406149
640.251	0.0414838
649.893	0.0428951
659.536	0.0438131
669.178	0.0455914
678.82	0.0468695
688.463	0.0484278
698.105	0.0511283
707.747	0.0541196
717.39	0.0586354
727.032	0.0690809
736.674	0.0945552
746.317	0.105422
755.959	0.0923914
765.601	0.124951
775.244	0.106964
784.886	0.104761
794.528	0.134346
804.171	0.184769
813.813	0.275676
823.455	0.249383
833.098	0.277859
842.74	0.199604
852.382	0.115856
862.025	0.0725972
871.667	0.0586541
881.309	0.0559502
890.952	0.0561567
900.594	0.059418
910.236	0.0666753
919.879	0.0809017
929.521	0.110279
939.163	0.159763
948.806	0.224936
958.448	0.1903
968.09	0.12664
977.733	0.0792801
987.375	0.055642
997.017	0.0480549
1006.66	0.0454077
1016.3	0.0452329
1025.94	0.0465796
1035.59	0.0490599
1045.23	0.0519809
1054.87	0.0541872
1064.51	0.0537618
1074.16	0.0543515
1083.8	0.0589131
1093.44	0.0694773
1103.08	0.0478525
1112.72	0.0442928
1122.37	0.0425912
1132.01	0.041717
1141.65	0.0415183
1151.3	0.0416311
1160.94	0.0419776
1170.58	0.0424934
1180.22	0.0436988
1189.86	0.0451484
1199.51	0.0465524
1209.15	0.0486045
1218.79	0.0515369
1228.43	0.0550457
1238.08	0.0590258
1247.72	0.0630405
1257.36	0.0695558
1267	0.0760775
1276.64	0.0841982
1286.29	0.0934797
1295.93	0.106784
1305.57	0.122118
1315.21	0.140801
1324.86	0.164247
1334.5	0.19206
1344.14	0.228366
1353.78	0.275791
1363.43	0.335262
1373.07	0.408501
1382.71	0.477825
1392.35	0.54252
1401.99	0.618231
1411.64	0.603567
1421.28	0.471265
1430.92	0.350774
1440.57	0.280061
1450.21	0.239115
1459.85	0.280997
1469.49	0.232876
1479.13	0.225411
1488.78	0.251539
1498.42	0.250246
1508.06	0.22934
1517.7	0.198188
1527.35	0.158072
1536.99	0.119157
1546.63	0.085624
1556.27	0.0574123
1565.91	0.0365358
1575.56	0.0243941
1585.2	0.0212324
1594.84	0.0183818
1604.48	0.0157857
1614.13	0.0146295
1623.77	0.0139257
1633.41	0.0137224
1643.05	0.0133333
1652.7	0.0125269
1662.34	0.0119798
1671.98	0.0112207
1681.62	0.0104812
1691.27	0.0104314
1700.91	0.0101501
1710.55	0.0100658
1720.19	0.0097796
1729.84	0.0096805
1739.48	0.00938512
1749.12	0.00913809
1758.76	0.00972833
1768.4	0.0103483
1778.05	0.0111273
1787.69	0.0114566
1797.33	0.0118045
1806.97	0.0130217
1816.62	0.0128437
1826.26	0.0149483
1835.9	0.015537
1845.54	0.0148791
1855.18	0.0162033
1864.83	0.0153254
1874.47	0.0159584
1884.11	0.0148922
1893.75	0.0134318
1903.4	0.0129222
1913.04	0.01178
1922.68	0.01135
1932.32	0.00991731
1941.97	0.0108387
1951.61	0.0113123
1961.25	0.0101172
1970.89	0.0116214
1980.54	0.014189
1990.18	0.0114357
1999.82	0.0136089
2009.46	0.0120219
2019.11	0.0127718
2028.75	0.0111964
2038.39	0.014233
2048.03	0.0164921
2057.67	0.0155098
2067.32	0.0139835
2076.96	0.0171774
2086.6	0.0165172
2096.24	0.0151128
2105.89	0.0157541
2115.53	0.0177078
2125.17	0.0143381
2134.81	0.0147599
2144.45	0.0134379
2154.1	0.011557
2163.74	0.0173005
2173.38	0.0161947
2183.02	0.0162293
2192.67	0.0180411
2202.31	0.019059
2211.95	0.0183521
2221.59	0.0202241
2231.24	0.019336
2240.88	0.0204009
2250.52	0.0208909
2260.16	0.0227409
2269.8	0.0212486
2279.45	0.0217312
2289.09	0.0228937
2298.73	0.023258
2308.38	0.0229962
2318.02	0.023586
2327.66	0.0233357
2337.3	0.0228479
2346.94	0.0229529
2356.59	0.0231666
2366.23	0.0226235
2375.87	0.0228377
2385.51	0.0225631
2395.16	0.0228187
2404.8	0.0235688
2414.44	0.0236179
2424.08	0.0241714
2433.72	0.0241413
2443.37	0.0255305
2453.01	0.0255772
2462.65	0.0262946
2472.29	0.0259654
2481.94	0.0272695
2491.58	0.0307424
2501.22	0.0323133
2510.86	0.0300017
2520.51	0.029695
2530.15	0.0289526
2539.79	0.0285413
2549.43	0.030159
2559.07	0.0310904
2568.72	0.0297078
2578.36	0.0282348
2588	0.0277382
2597.64	0.0293934
2607.29	0.028637
2616.93	0.0277753
2626.57	0.0280081
2636.21	0.0282376
2645.86	0.0284479
2655.5	0.0289329
2665.14	0.0285422
2674.78	0.0276797
2684.43	0.0275846
2694.07	0.0275985
2703.71	0.0276674
2713.35	0.0274442
2722.99	0.0287876
2732.64	0.0285925
2742.28	0.0281017
2751.92	0.0282664
2761.56	0.0291794
2771.21	0.028471
2780.85	0.0295593
2790.49	0.0287436
2800.13	0.0300037
2809.78	0.0303403
2819.42	0.0316519
2829.06	0.0333986
2838.7	0.0333919
2848.34	0.0340393
2857.99	0.0347582
2867.63	0.0357016
2877.27	0.0376873
2886.91	0.0380755
2896.56	0.0382836
2906.2	0.0396638
2915.84	0.0390062
2925.48	0.0388258
2935.13	0.0395406
2944.77	0.0404733
2954.41	0.0402512
2964.05	0.0394511
2973.7	0.04131
2983.34	0.03986
2992.98	0.0412819
3002.62	0.040918
3012.26	0.0415645
3021.91	0.0425501
3031.55	0.0422134
3041.19	0.0435549
3050.83	0.0440902
3060.48	0.0456451
3070.12	0.0463594
3079.76	0.047478
3089.4	0.0485437
3099.05	0.0502304
3108.69	0.0511387
3118.33	0.0529714
3127.97	0.0535578
3137.61	0.05393
3147.26	0.0549483
3156.9	0.0577637
3166.54	0.0564302
3176.18	0.0581958
3185.83	0.0584926
3195.47	0.0598798
3205.11	0.0598159
3214.75	0.0608708
3224.4	0.0624493
3234.04	0.0633804
3243.68	0.0644696
3253.32	0.0650983
3262.97	0.0679433
3272.61	0.0683337
3282.25	0.0715518
3291.89	0.0730475
3301.53	0.0749382
3311.18	0.0776084
3320.82	0.0807859
3330.46	0.0849501
3340.1	0.0891683
3349.75	0.0918572
3359.39	0.0978619
3369.03	0.100933
3378.67	0.104249
3388.32	0.111261
3397.96	0.126287
3407.6	0.157756
3417.24	0.215077
3426.89	0.277205
3436.53	0.147231
3446.17	0.0863151
3455.81	0.0707751
3465.45	0.0644711
3475.1	0.0604082
3484.74	0.0561433
3494.38	0.0541681
3504.02	0.0479735
3513.67	0.0477732
3523.31	0.0433832
3532.95	0.0416761
3542.59	0.0429239
3552.24	0.0424396
3561.88	0.0404302
3571.52	0.041606
3581.16	0.039233
3590.8	0.0360054
3600.45	0.0378977
3610.09	0.0384165
3619.73	0.0375544
3629.37	0.0372561
3639.02	0.0357854
3648.66	0.0370848
3658.3	0.0359418
3667.94	0.0346871
3677.59	0.0376839
3687.23	0.0353131
3696.87	0.0366579
3706.51	0.0366665
3716.16	0.0392272
3725.8	0.0386341
3735.44	0.0361134
3745.08	0.0370329
3754.72	0.0393144
3764.37	0.0379425
3774.01	0.0375885
3783.65	0.0392956
3793.29	0.0393364
3802.94	0.0389523
3812.58	0.0401448
3822.22	0.0423009
3831.86	0.0407249
3841.51	0.0415457
3851.15	0.0397373
3860.79	0.0357204
3870.43	0.043439
3880.07	0.0421532
3889.72	0.0413003
3899.36	0.0419061
3909	0.0384279
3918.64	0.0376541
3928.29	0.0415774
3937.93	0.0403251
3947.57	0.0437883
3957.21	0.0388656
3966.86	0.0409341
3976.5	0.0426477
3986.14	0.0434504
3995.78	0.0417849
