Measurement: Infrared, Infrared Data Processed
Mineral: Azurite
Rruff sample: R050497
Ideal chemistry: Cu^2+^_3_(CO_3_)_2_(OH)_2_
Locality: Tsumeb mine, Tsumeb, Otavi District, Oshikoto, Namibia
Source: Marcus Origlieri
Description: Blue prismatic single crystal
Measured chemistry: Cu_3.00_(CO_3_)_2_(OH)_2_
x	intensity
372.194	0
381.836	0.0949489
391.479	0.113658
401.121	0.139741
410.763	0.103161
420.406	0.0764466
430.048	0.0810561
439.69	0.123084
449.333	0.171082
458.975	0.138943
468.617	0.0828073
478.26	0.0691336
487.902	0.0929798
497.544	0.0900422
507.187	0.0571643
516.829	0.0329253
526.471	0.0231223
536.114	0.0190538
545.756	0.0167414
555.398	0.0160379
565.041	0.0155811
574.683	0.0155874
584.325	0.0161997
593.968	0.017542
603.61	0.0181777
613.252	0.0197191
622.895	0.0212104
632.537	0.02295
642.179	0.024718
651.822	0.0269622
661.464	0.0287982
671.106	0.0315933
680.749	0.0344566
690.391	0.038415
700.033	0.0431125
709.676	0.0486409
719.318	0.0582292
728.96	0.0771464
738.603	0.0915732
748.245	0.0903124
757.887	0.0850537
767.53	0.110578
777.172	0.0824549
786.814	0.0898419
796.457	0.115952
806.099	0.149976
815.741	0.184985
825.384	0.169462
835.026	0.178225
844.668	0.119528
854.311	0.0716923
863.953	0.0480998
873.595	0.0463011
883.238	0.0499664
892.88	0.0435543
902.522	0.046568
912.165	0.0549366
921.807	0.0684717
931.449	0.0901567
941.092	0.120589
950.734	0.14873
960.376	0.118111
970.019	0.0808943
979.661	0.0514711
989.303	0.0375339
998.946	0.0324977
1008.59	0.0305858
1018.23	0.0301031
1027.87	0.0301372
1037.52	0.0311686
1047.16	0.0323324
1056.8	0.033925
1066.44	0.0352509
1076.08	0.0380171
1085.73	0.0458535
1095.37	0.0458071
1105.01	0.0360268
1114.65	0.0375572
1124.3	0.0398669
1133.94	0.0422245
1143.58	0.0447387
1153.22	0.0475135
1162.87	0.0502287
1172.51	0.0531875
1182.15	0.0563287
1191.79	0.0597797
1201.43	0.0631861
1211.08	0.0672333
1220.72	0.0717704
1230.36	0.0766201
1240	0.0815431
1249.65	0.0870799
1259.29	0.0940175
1268.93	0.100696
1278.57	0.108871
1288.22	0.11901
1297.86	0.130259
1307.5	0.142977
1317.14	0.157534
1326.79	0.174404
1336.43	0.192857
1346.07	0.21493
1355.71	0.240488
1365.35	0.269877
1375	0.302954
1384.64	0.327485
1394.28	0.362022
1403.92	0.378966
1413.57	0.349467
1423.21	0.287113
1432.85	0.23486
1442.49	0.197271
1452.13	0.182458
1461.78	0.218163
1471.42	0.159867
1481.06	0.153773
1490.7	0.155239
1500.35	0.146828
1509.99	0.132625
1519.63	0.114259
1529.27	0.0935944
1538.92	0.0731036
1548.56	0.0543252
1558.2	0.0365963
1567.84	0.0209043
1577.49	0.0121142
1587.13	0.00943285
1596.77	0.00763858
1606.41	0.00638641
1616.06	0.0053373
1625.7	0.00500672
1635.34	0.00503041
1644.98	0.00513347
1654.62	0.00444159
1664.27	0.00434763
1673.91	0.00424065
1683.55	0.00435548
1693.19	0.00469117
1702.84	0.00492779
1712.48	0.00488384
1722.12	0.00499554
1731.76	0.00518839
1741.4	0.00512253
1751.05	0.00497351
1760.69	0.00634434
1770.33	0.00686519
1779.97	0.00783716
1789.62	0.00822179
1799.26	0.00894529
1808.9	0.00931255
1818.54	0.0105618
1828.19	0.0117864
1837.83	0.0119442
1847.47	0.0117938
1857.11	0.0126615
1866.76	0.0124143
1876.4	0.0120945
1886.04	0.0114529
1895.68	0.0113662
1905.33	0.0102485
1914.97	0.0099481
1924.61	0.00916027
1934.25	0.00879611
1943.89	0.0101205
1953.54	0.00929782
1963.18	0.0101584
1972.82	0.0115771
1982.46	0.0125692
1992.11	0.0131719
2001.75	0.0112481
2011.39	0.0122466
2021.03	0.0113704
2030.67	0.0132889
2040.32	0.0138797
2049.96	0.0143855
2059.6	0.012571
2069.24	0.0135818
2078.89	0.0143585
2088.53	0.0136362
2098.17	0.0136134
2107.81	0.0137109
2117.46	0.0136298
2127.1	0.0131274
2136.74	0.0139625
2146.38	0.0130409
2156.03	0.0134713
2165.67	0.0165788
2175.31	0.0162601
2184.95	0.0170033
2194.59	0.0170408
2204.24	0.015683
2213.88	0.0169613
2223.52	0.0171324
2233.16	0.0168754
2242.81	0.0168863
2252.45	0.0172278
2262.09	0.0173245
2271.73	0.0182267
2281.38	0.0181807
2291.02	0.0183942
2300.66	0.0183341
2310.3	0.017611
2319.95	0.0189054
2329.59	0.0183685
2339.23	0.0187727
2348.87	0.0178423
2358.51	0.019291
2368.16	0.018512
2377.8	0.0184013
2387.44	0.0179704
2397.08	0.0182376
2406.73	0.0187197
2416.37	0.0186547
2426.01	0.0191509
2435.65	0.0193164
2445.3	0.0196929
2454.94	0.0196156
2464.58	0.0202821
2474.22	0.0211925
2483.86	0.0216046
2493.51	0.0250249
2503.15	0.0249884
2512.79	0.0241238
2522.43	0.0234567
2532.08	0.0235496
2541.72	0.0237384
2551.36	0.0246454
2561	0.0246535
2570.65	0.0226027
2580.29	0.0215807
2589.93	0.022059
2599.57	0.0219152
2609.22	0.0215785
2618.86	0.0220503
2628.5	0.0216545
2638.14	0.0214435
2647.78	0.021559
2657.43	0.0209099
2667.07	0.0202573
2676.71	0.0202186
2686.35	0.0202486
2696	0.0205063
2705.64	0.02048
2715.28	0.0207687
2724.92	0.0208119
2734.57	0.0206944
2744.21	0.0206052
2753.85	0.0209164
2763.49	0.0207239
2773.14	0.0212431
2782.78	0.0210355
2792.42	0.0208853
2802.06	0.0212812
2811.7	0.0219504
2821.35	0.0225453
2830.99	0.0234631
2840.63	0.0230492
2850.27	0.0206037
2859.92	0.0216543
2869.56	0.023002
2879.2	0.0248377
2888.84	0.0255272
2898.49	0.0243281
2908.13	0.0240334
2917.77	0.0206808
2927.41	0.0199068
2937.05	0.0227006
2946.7	0.0243375
2956.34	0.0245075
2965.98	0.0262103
2975.62	0.0262996
2985.27	0.0261093
2994.91	0.0256316
3004.55	0.0265762
3014.19	0.025333
3023.84	0.0260768
3033.48	0.0260415
3043.12	0.0277126
3052.76	0.0272922
3062.41	0.0272064
3072.05	0.0289188
3081.69	0.0290746
3091.33	0.0294375
3100.97	0.0307776
3110.62	0.0312112
3120.26	0.0313416
3129.9	0.0329101
3139.54	0.033122
3149.19	0.0337162
3158.83	0.0342827
3168.47	0.0345981
3178.11	0.0359016
3187.76	0.0363053
3197.4	0.0375959
3207.04	0.0371717
3216.68	0.0381419
3226.32	0.0391562
3235.97	0.0404272
3245.61	0.0413681
3255.25	0.0422198
3264.89	0.0441782
3274.54	0.045402
3284.18	0.0472638
3293.82	0.0488655
3303.46	0.0500667
3313.11	0.0534082
3322.75	0.0554055
3332.39	0.0587712
3342.03	0.0620429
3351.68	0.0657801
3361.32	0.069033
3370.96	0.0705129
3380.6	0.0743815
3390.24	0.0819029
3399.89	0.0930974
3409.53	0.114784
3419.17	0.145735
3428.81	0.146968
3438.46	0.0735644
3448.1	0.0470097
3457.74	0.0380453
3467.38	0.0355289
3477.03	0.0334019
3486.67	0.0292262
3496.31	0.026895
3505.95	0.0255482
3515.59	0.0243152
3525.24	0.0235107
3534.88	0.0234105
3544.52	0.0238536
3554.16	0.0236516
3563.81	0.0244187
3573.45	0.0239771
3583.09	0.0238713
3592.73	0.0246724
3602.38	0.023406
3612.02	0.023335
3621.66	0.0237465
3631.3	0.0247225
3640.95	0.0248853
3650.59	0.0254229
3660.23	0.0246025
3669.87	0.025942
3679.51	0.0261549
3689.16	0.0252055
3698.8	0.0269741
3708.44	0.0265972
3718.08	0.027114
3727.73	0.0276923
3737.37	0.0270867
3747.01	0.0262908
3756.65	0.0274979
3766.3	0.0284742
3775.94	0.0271892
3785.58	0.0277636
3795.22	0.0286996
3804.86	0.0280748
3814.51	0.0277413
3824.15	0.0283667
3833.79	0.0282008
3843.43	0.0284605
3853.08	0.0283878
3862.72	0.02828
3872.36	0.0288118
3882	0.0284574
3891.65	0.028616
3901.29	0.0299564
3910.93	0.0292654
3920.57	0.0286703
3930.22	0.0291968
3939.86	0.0291095
3949.5	0.0297786
3959.14	0.0289144
3968.78	0.0288563
3978.43	0.030245
3988.07	0.0298031
3997.71	0.0300675
