Measurement: Infrared, Infrared Data Processed
Mineral: Babingtonite
Rruff sample: R060093
Ideal chemistry: Ca_2_Fe^2+^Fe^3+^Si_5_O_14_(OH)
Locality: Iron Cap mine, Aravaipa District, Graham County, Arizona, USA
Source: University of Arizona Mineral Museum
Description: Dark prismatic striated crystals
Measured chemistry: Ca_2.00_(Fe^2+^_0.54_Mn_0.46_)(Fe^3+^_0.96_Al_0.04_)Si_5.00_O_14_(OH)
x	intensity
399.193	0.148293
408.835	0.157772
418.477	0.219499
428.12	0.224962
437.762	0.212083
447.404	0.199601
457.047	0.215456
466.689	0.190331
476.331	0.161313
485.974	0.20653
495.616	0.213329
505.258	0.194695
514.901	0.1589
524.543	0.144924
534.185	0.140017
543.828	0.139143
553.47	0.122815
563.112	0.0808226
572.755	0.0578731
582.397	0.0439108
592.039	0.041879
601.682	0.0430036
611.324	0.0487187
620.966	0.059962
630.609	0.0763268
640.251	0.110611
649.893	0.0860739
659.536	0.0827474
669.178	0.0508793
678.82	0.0472288
688.463	0.049871
698.105	0.0729421
707.747	0.0929076
717.39	0.0649542
727.032	0.0631914
736.674	0.0717651
746.317	0.0859283
755.959	0.104875
765.601	0.112764
775.244	0.0747338
784.886	0.0710456
794.528	0.0778845
804.171	0.0902287
813.813	0.10787
823.455	0.130856
833.098	0.160541
842.74	0.197281
852.382	0.241681
862.025	0.289072
871.667	0.323189
881.309	0.358104
890.952	0.367019
900.594	0.34867
910.236	0.335124
919.879	0.303741
929.521	0.316395
939.163	0.305605
948.806	0.276377
958.448	0.207944
968.09	0.180982
977.733	0.183804
987.375	0.231307
997.017	0.237359
1006.66	0.233527
1016.3	0.238656
1025.94	0.228799
1035.59	0.211742
1045.23	0.20547
1054.87	0.168943
1064.51	0.148847
1074.16	0.143058
1083.8	0.140223
1093.44	0.140773
1103.08	0.121777
1112.72	0.0873437
1122.37	0.0589762
1132.01	0.0406311
1141.65	0.0297254
1151.3	0.0243575
1160.94	0.0217406
1170.58	0.0197468
1180.22	0.0183671
1189.86	0.0171022
1199.51	0.0158946
1209.15	0.0152613
1218.79	0.0147689
1228.43	0.0151103
1238.08	0.0170771
1247.72	0.0218854
1257.36	0.0319287
1267	0.0431412
1276.64	0.039392
1286.29	0.0256388
1295.93	0.018797
1305.57	0.0164182
1315.21	0.0148431
1324.86	0.0141766
1334.5	0.0139559
1344.14	0.0141914
1353.78	0.0145244
1363.43	0.0146796
1373.07	0.0156014
1382.71	0.0167363
1392.35	0.0173388
1401.99	0.0182572
1411.64	0.0190201
1421.28	0.0186129
1430.92	0.019098
1440.57	0.0191862
1450.21	0.0190256
1459.85	0.0182687
1469.49	0.0186379
1479.13	0.0193695
1488.78	0.0188204
1498.42	0.0186116
1508.06	0.0168748
1517.7	0.0179079
1527.35	0.0183198
1536.99	0.0178611
1546.63	0.0186919
1556.27	0.0168603
1565.91	0.0188002
1575.56	0.0168152
1585.2	0.0196639
1594.84	0.0199381
1604.48	0.0202357
1614.13	0.0198774
1623.77	0.0199121
1633.41	0.0198563
1643.05	0.020747
1652.7	0.0150813
1662.34	0.019861
1671.98	0.0198595
1681.62	0.0193499
1691.27	0.0201542
1700.91	0.0162535
1710.55	0.0195668
1720.19	0.0185469
1729.84	0.0191253
1739.48	0.0180113
1749.12	0.0173424
1758.76	0.0188959
1768.4	0.0185664
1778.05	0.01937
1787.69	0.0198274
1797.33	0.0200394
1806.97	0.0199356
1816.62	0.0197896
1826.26	0.020173
1835.9	0.0202744
1845.54	0.0197059
1855.18	0.0207555
1864.83	0.0205983
1874.47	0.0201387
1884.11	0.0205612
1893.75	0.0204887
1903.4	0.0207228
1913.04	0.0213088
1922.68	0.021227
1932.32	0.022233
1941.97	0.0210724
1951.61	0.0211971
1961.25	0.0223322
1970.89	0.0215415
1980.54	0.0225782
1990.18	0.0215261
1999.82	0.022763
2009.46	0.0230448
2019.11	0.0229727
2028.75	0.022461
2038.39	0.0237604
2048.03	0.0243622
2057.67	0.0251259
2067.32	0.0247107
2076.96	0.0252245
2086.6	0.0260533
2096.24	0.0257255
2105.89	0.0269269
2115.53	0.0269735
2125.17	0.026538
2134.81	0.0268057
2144.45	0.0278303
2154.1	0.027819
2163.74	0.030877
2173.38	0.0300024
2183.02	0.031312
2192.67	0.0317263
2202.31	0.0323089
2211.95	0.0339016
2221.59	0.034868
2231.24	0.0352875
2240.88	0.0359636
2250.52	0.0365931
2260.16	0.037997
2269.8	0.0389854
2279.45	0.0398568
2289.09	0.0401857
2298.73	0.0403937
2308.38	0.0409627
2318.02	0.0425536
2327.66	0.0427466
2337.3	0.0433515
2346.94	0.043302
2356.59	0.0440376
2366.23	0.0446201
2375.87	0.0438811
2385.51	0.0442986
2395.16	0.0446996
2404.8	0.0450692
2414.44	0.0459018
2424.08	0.0451623
2433.72	0.0444931
2443.37	0.0429667
2453.01	0.0408516
2462.65	0.0391231
2472.29	0.0372757
2481.94	0.0361538
2491.58	0.0356529
2501.22	0.0344538
2510.86	0.0346823
2520.51	0.0345683
2530.15	0.0346521
2539.79	0.0345837
2549.43	0.0352013
2559.07	0.0360677
2568.72	0.0367559
2578.36	0.0372657
2588	0.0378278
2597.64	0.037848
2607.29	0.0388906
2616.93	0.0397058
2626.57	0.0401396
2636.21	0.0403868
2645.86	0.0410718
2655.5	0.041357
2665.14	0.0414986
2674.78	0.0423614
2684.43	0.0431833
2694.07	0.0434043
2703.71	0.0443115
2713.35	0.0447903
2722.99	0.0453269
2732.64	0.0457289
2742.28	0.0465016
2751.92	0.0471723
2761.56	0.0479215
2771.21	0.0485795
2780.85	0.0491506
2790.49	0.0498511
2800.13	0.0501017
2809.78	0.050872
2819.42	0.0514597
2829.06	0.0517818
2838.7	0.0522209
2848.34	0.0491819
2857.99	0.0511112
2867.63	0.0523252
2877.27	0.052109
2886.91	0.0517488
2896.56	0.0503339
2906.2	0.0498241
2915.84	0.0459362
2925.48	0.0464341
2935.13	0.0472688
2944.77	0.0475855
2954.41	0.0477841
2964.05	0.0474248
2973.7	0.0464886
2983.34	0.0466201
2992.98	0.0463185
3002.62	0.0455651
3012.26	0.0454609
3021.91	0.0448776
3031.55	0.0446834
3041.19	0.0449538
3050.83	0.0447546
3060.48	0.0444072
3070.12	0.0442496
3079.76	0.0446915
3089.4	0.0443813
3099.05	0.0448129
3108.69	0.0448908
3118.33	0.0447065
3127.97	0.0444105
3137.61	0.0440309
3147.26	0.0448478
3156.9	0.0446175
3166.54	0.0446459
3176.18	0.0446398
3185.83	0.0451619
3195.47	0.044442
3205.11	0.0443912
3214.75	0.0441906
3224.4	0.0445817
3234.04	0.0457976
3243.68	0.0457811
3253.32	0.0448926
3262.97	0.0457801
3272.61	0.0459681
3282.25	0.0456599
3291.89	0.0464811
3301.53	0.0463206
3311.18	0.0476243
3320.82	0.0469122
3330.46	0.0469756
3340.1	0.0472096
3349.75	0.0476984
3359.39	0.0475574
3369.03	0.0472001
3378.67	0.0468413
3388.32	0.0465724
3397.96	0.0462038
3407.6	0.0461037
3417.24	0.0458163
3426.89	0.0464351
3436.53	0.0452217
3446.17	0.0453442
3455.81	0.0452184
3465.45	0.0452191
3475.1	0.0451027
3484.74	0.0456474
3494.38	0.045531
3504.02	0.0443669
3513.67	0.0447426
3523.31	0.0441537
3532.95	0.0435403
3542.59	0.0444686
3552.24	0.0430918
3561.88	0.0436554
3571.52	0.0429084
3581.16	0.0421788
3590.8	0.0425465
3600.45	0.0423433
3610.09	0.0410951
3619.73	0.0407328
3629.37	0.0408027
3639.02	0.0399986
3648.66	0.040447
3658.3	0.038655
3667.94	0.0399963
3677.59	0.0394865
3687.23	0.0388912
3696.87	0.0391943
3706.51	0.0393658
3716.16	0.0402833
3725.8	0.0408657
3735.44	0.0413157
3745.08	0.0386073
3754.72	0.0401693
3764.37	0.0406326
3774.01	0.0401144
3783.65	0.0402243
3793.29	0.0406051
3802.94	0.0394764
3812.58	0.0399774
3822.22	0.0410364
3831.86	0.0404706
3841.51	0.0416579
3851.15	0.0402813
3860.79	0.0411808
3870.43	0.0416631
3880.07	0.042044
3889.72	0.0413231
3899.36	0.0418334
3909	0.040253
3918.64	0.0417672
3928.29	0.0415158
3937.93	0.0411446
3947.57	0.0418245
3957.21	0.0421166
3966.86	0.0419556
3976.5	0.0407244
3986.14	0.0425715
3995.78	0.0425004
