Measurement: Infrared, Infrared Data Processed
Mineral: Babingtonite
Rruff sample: R060084
Ideal chemistry: Ca_2_Fe^2+^Fe^3+^Si_5_O_14_(OH)
Locality: Winchester Highlands, Massachusetts, USA
Source: University of Arizona Mineral Museum
Description: Black stubby prismatic crystals
Measured chemistry: Ca_2.00_(Fe^2+^_0.89_Mg_0.07_Mn_0.04_)(Fe^3+^_0.96_Al_0.04_)Si_5.00_O_14_(OH)
x	intensity
399.193	0.128865
408.835	0.129435
418.477	0.173692
428.12	0.18974
437.762	0.182118
447.404	0.164161
457.047	0.166491
466.689	0.146723
476.331	0.127051
485.974	0.154144
495.616	0.172995
505.258	0.165681
514.901	0.148457
524.543	0.125345
534.185	0.109159
543.828	0.109855
553.47	0.109634
563.112	0.0751767
572.755	0.0487087
582.397	0.0345595
592.039	0.032176
601.682	0.0319112
611.324	0.0344694
620.966	0.039844
630.609	0.0510847
640.251	0.0803405
649.893	0.0759581
659.536	0.0653897
669.178	0.0352647
678.82	0.0326717
688.463	0.0348182
698.105	0.0529703
707.747	0.0747252
717.39	0.0496641
727.032	0.0464913
736.674	0.0541848
746.317	0.0692737
755.959	0.0902626
765.601	0.0943172
775.244	0.0584902
784.886	0.0549743
794.528	0.0595122
804.171	0.0686587
813.813	0.0817218
823.455	0.0966211
833.098	0.116911
842.74	0.142921
852.382	0.174919
862.025	0.213465
871.667	0.246821
881.309	0.266465
890.952	0.290925
900.594	0.276843
910.236	0.267475
919.879	0.241428
929.521	0.260634
939.163	0.264408
948.806	0.243012
958.448	0.188971
968.09	0.157059
977.733	0.150012
987.375	0.176316
997.017	0.198388
1006.66	0.185011
1016.3	0.187045
1025.94	0.179562
1035.59	0.181211
1045.23	0.172092
1054.87	0.133238
1064.51	0.113273
1074.16	0.108104
1083.8	0.108675
1093.44	0.114439
1103.08	0.0930855
1112.72	0.0626455
1122.37	0.0394373
1132.01	0.0244914
1141.65	0.0169253
1151.3	0.0138171
1160.94	0.0117704
1170.58	0.010496
1180.22	0.00928588
1189.86	0.00822852
1199.51	0.00755359
1209.15	0.00746046
1218.79	0.00810429
1228.43	0.00936153
1238.08	0.0117182
1247.72	0.0173998
1257.36	0.0283435
1267	0.039754
1276.64	0.0282814
1286.29	0.0152848
1295.93	0.0104123
1305.57	0.00865778
1315.21	0.00819793
1324.86	0.00820151
1334.5	0.00816846
1344.14	0.00844753
1353.78	0.00876073
1363.43	0.00934922
1373.07	0.0103483
1382.71	0.0116402
1392.35	0.0139168
1401.99	0.0164506
1411.64	0.0192484
1421.28	0.0211796
1430.92	0.0224266
1440.57	0.0228009
1450.21	0.0227734
1459.85	0.0219716
1469.49	0.0209212
1479.13	0.0200316
1488.78	0.0186632
1498.42	0.0171455
1508.06	0.015372
1517.7	0.0142415
1527.35	0.0132103
1536.99	0.0122074
1546.63	0.0116969
1556.27	0.0107782
1565.91	0.0110858
1575.56	0.0101809
1585.2	0.0106682
1594.84	0.01046
1604.48	0.0104751
1614.13	0.0102608
1623.77	0.0101045
1633.41	0.0102751
1643.05	0.0102156
1652.7	0.0092118
1662.34	0.0102224
1671.98	0.0100744
1681.62	0.00993678
1691.27	0.0101174
1700.91	0.00919744
1710.55	0.00978293
1720.19	0.00948754
1729.84	0.00937123
1739.48	0.00871618
1749.12	0.00848718
1758.76	0.00899571
1768.4	0.00907818
1778.05	0.00964316
1787.69	0.0100996
1797.33	0.00974128
1806.97	0.00983364
1816.62	0.00929192
1826.26	0.00986678
1835.9	0.0091852
1845.54	0.0098692
1855.18	0.0101621
1864.83	0.00987667
1874.47	0.00987517
1884.11	0.00983049
1893.75	0.00964895
1903.4	0.0096488
1913.04	0.00979543
1922.68	0.0101028
1932.32	0.0104884
1941.97	0.0104227
1951.61	0.0101758
1961.25	0.0116832
1970.89	0.00975357
1980.54	0.0126401
1990.18	0.0108095
1999.82	0.0104075
2009.46	0.0108832
2019.11	0.0104797
2028.75	0.0103376
2038.39	0.0121608
2048.03	0.0124058
2057.67	0.0116887
2067.32	0.0122653
2076.96	0.0129005
2086.6	0.0127122
2096.24	0.0135248
2105.89	0.0147327
2115.53	0.0148208
2125.17	0.0143235
2134.81	0.0132522
2144.45	0.0132947
2154.1	0.0143183
2163.74	0.0177539
2173.38	0.017429
2183.02	0.0189031
2192.67	0.0187034
2202.31	0.0198985
2211.95	0.0206007
2221.59	0.021211
2231.24	0.022519
2240.88	0.0237293
2250.52	0.0237845
2260.16	0.0247672
2269.8	0.0254223
2279.45	0.025951
2289.09	0.0267013
2298.73	0.0263152
2308.38	0.0271497
2318.02	0.0279701
2327.66	0.027583
2337.3	0.0272813
2346.94	0.0275403
2356.59	0.0271374
2366.23	0.0269032
2375.87	0.0268877
2385.51	0.0268324
2395.16	0.0271488
2404.8	0.0272024
2414.44	0.0272466
2424.08	0.0264005
2433.72	0.0249896
2443.37	0.0237632
2453.01	0.0227342
2462.65	0.0202379
2472.29	0.0187372
2481.94	0.0183367
2491.58	0.0178093
2501.22	0.017667
2510.86	0.0179174
2520.51	0.0180532
2530.15	0.0186314
2539.79	0.0182952
2549.43	0.0195192
2559.07	0.0197099
2568.72	0.0202178
2578.36	0.0209467
2588	0.0215535
2597.64	0.0214896
2607.29	0.0215737
2616.93	0.0223721
2626.57	0.0229033
2636.21	0.023104
2645.86	0.0238168
2655.5	0.0236388
2665.14	0.0235065
2674.78	0.0234747
2684.43	0.024113
2694.07	0.0243718
2703.71	0.0246047
2713.35	0.0254381
2722.99	0.0257981
2732.64	0.0257269
2742.28	0.0263143
2751.92	0.0265049
2761.56	0.0268363
2771.21	0.0274785
2780.85	0.0273557
2790.49	0.0278637
2800.13	0.028095
2809.78	0.0282144
2819.42	0.0286409
2829.06	0.028962
2838.7	0.0290881
2848.34	0.0289998
2857.99	0.0285185
2867.63	0.0277985
2877.27	0.0274667
2886.91	0.0268447
2896.56	0.0262942
2906.2	0.0254478
2915.84	0.0241499
2925.48	0.0234122
2935.13	0.0229451
2944.77	0.02281
2954.41	0.0225201
2964.05	0.0220639
2973.7	0.0215274
2983.34	0.0213194
2992.98	0.0212244
3002.62	0.0210019
3012.26	0.0211425
3021.91	0.020991
3031.55	0.0204784
3041.19	0.0206358
3050.83	0.0204955
3060.48	0.0206064
3070.12	0.0205563
3079.76	0.0204714
3089.4	0.0203302
3099.05	0.02082
3108.69	0.0207405
3118.33	0.0205393
3127.97	0.0203333
3137.61	0.0208913
3147.26	0.0204409
3156.9	0.0207186
3166.54	0.0209393
3176.18	0.0208742
3185.83	0.0205601
3195.47	0.0210031
3205.11	0.0206264
3214.75	0.0213811
3224.4	0.0208924
3234.04	0.0213963
3243.68	0.0212672
3253.32	0.0205472
3262.97	0.020679
3272.61	0.020823
3282.25	0.0203855
3291.89	0.0205377
3301.53	0.0205022
3311.18	0.0208218
3320.82	0.0204269
3330.46	0.0209971
3340.1	0.0207623
3349.75	0.0203887
3359.39	0.0206941
3369.03	0.0213171
3378.67	0.021069
3388.32	0.0209344
3397.96	0.0214463
3407.6	0.0204791
3417.24	0.020994
3426.89	0.0203477
3436.53	0.0212868
3446.17	0.0208723
3455.81	0.0210808
3465.45	0.0212463
3475.1	0.0218159
3484.74	0.0221983
3494.38	0.0221635
3504.02	0.0204888
3513.67	0.0202322
3523.31	0.020227
3532.95	0.0209072
3542.59	0.0198582
3552.24	0.0198808
3561.88	0.0201937
3571.52	0.0194492
3581.16	0.0191394
3590.8	0.0190069
3600.45	0.018912
3610.09	0.0187237
3619.73	0.0187547
3629.37	0.0175184
3639.02	0.0174542
3648.66	0.0169865
3658.3	0.0177649
3667.94	0.0178188
3677.59	0.0171416
3687.23	0.0174128
3696.87	0.0185515
3706.51	0.0189378
3716.16	0.0194113
3725.8	0.0185549
3735.44	0.0188887
3745.08	0.0175265
3754.72	0.0189552
3764.37	0.0182516
3774.01	0.018296
3783.65	0.0190414
3793.29	0.0187423
3802.94	0.0180362
3812.58	0.0188768
3822.22	0.0185433
3831.86	0.0188461
3841.51	0.0190429
3851.15	0.0179535
3860.79	0.0188009
3870.43	0.0181649
3880.07	0.0189043
3889.72	0.0193967
3899.36	0.0190392
3909	0.0191409
3918.64	0.0205782
3928.29	0.0199622
3937.93	0.0196018
3947.57	0.019715
3957.21	0.0206212
3966.86	0.0199612
3976.5	0.0195023
3986.14	0.0201275
3995.78	0.0201179
