Measurement: Infrared, Infrared Data Processed
Mineral: Baddeleyite
Rruff sample: R060016
Ideal chemistry: Zr^4+^O_2_
Locality: Wet Loo, Myanmar
Source: American Museum of Natural History
Description: Brown crystal fragment
Measured chemistry: (Zr_0.99_Ti_0.01_)_Î£=1_O_2_
x	intensity
399.193	0.334574
408.835	0.301507
418.477	0.270787
428.12	0.247436
437.762	0.255884
447.404	0.261497
457.047	0.250377
466.689	0.294099
476.331	0.328774
485.974	0.324622
495.616	0.295348
505.258	0.267292
514.901	0.234433
524.543	0.207896
534.185	0.183895
543.828	0.165189
553.47	0.16172
563.112	0.178738
572.755	0.189014
582.397	0.173333
592.039	0.152217
601.682	0.135506
611.324	0.1221
620.966	0.110436
630.609	0.104485
640.251	0.102543
649.893	0.103191
659.536	0.104429
669.178	0.104361
678.82	0.104006
688.463	0.103939
698.105	0.104849
707.747	0.107679
717.39	0.113138
727.032	0.1117
736.674	0.103132
746.317	0.0915754
755.959	0.0796284
765.601	0.0665261
775.244	0.0552129
784.886	0.0440891
794.528	0.034343
804.171	0.0235404
813.813	0.0122034
823.455	0.00757446
833.098	0.00533392
842.74	0.00374601
852.382	0.0023184
862.025	0.0016636
871.667	0.00106017
881.309	0.00033586
890.952	0.000439874
900.594	-0.000389117
910.236	0.000428804
919.879	-9.56729e-05
929.521	-0.000126675
939.163	6.58371e-05
948.806	0.000335273
958.448	0.00019925
968.09	0.00010801
977.733	-0.000263657
987.375	-0.000156778
997.017	0.000134217
1006.66	3.21707e-05
1016.3	-0.000310672
1025.94	-0.000604715
1035.59	-0.000264004
1045.23	-0.000500372
1054.87	0.000618996
1064.51	0.000337489
1074.16	-0.000165423
1083.8	0.000103854
1093.44	-0.000121852
1103.08	0.000218717
1112.72	-0.00010011
1122.37	3.72529e-06
1132.01	8.72444e-05
1141.65	-0.000206722
1151.3	-0.000184495
1160.94	-0.000272931
1170.58	-0.000264211
1180.22	-8.52831e-05
1189.86	-0.000110924
1199.51	-2.26442e-05
1209.15	0.000213202
1218.79	0.000177695
1228.43	-0.00032096
1238.08	0.000561485
1247.72	9.36985e-05
1257.36	-0.000304308
1267	-2.12472e-05
1276.64	0.000276351
1286.29	-8.70526e-05
1295.93	0.000230482
1305.57	-0.000426982
1315.21	-8.6071e-05
1324.86	0.00043791
1334.5	-0.000168014
1344.14	-0.000419563
1353.78	0.000308089
1363.43	-0.000526786
1373.07	-0.000701018
1382.71	-0.000467829
1392.35	-0.000558425
1401.99	-0.00035106
1411.64	0.000146058
1421.28	-0.000655055
1430.92	-0.000119779
1440.57	-0.00049663
1450.21	-0.000221699
1459.85	0.000255786
1469.49	0.000239231
1479.13	0.000232991
1488.78	0.000248101
1498.42	0.000364792
1508.06	0.000261214
1517.7	-0.000255696
1527.35	-0.000766974
1536.99	-0.000419982
1546.63	7.42003e-05
1556.27	-4.87492e-05
1565.91	0.000285897
1575.56	-0.000365723
1585.2	0.000290412
1594.84	6.43022e-05
1604.48	-0.000112217
1614.13	1.74828e-05
1623.77	-0.000311136
1633.41	-0.00085013
1643.05	5.08688e-05
1652.7	-0.000143237
1662.34	-0.000343815
1671.98	0.000206769
1681.62	9.96999e-05
1691.27	0.00107561
1700.91	-0.000528995
1710.55	-0.000248611
1720.19	0.000183553
1729.84	0.000557303
1739.48	0.000348389
1749.12	-0.000352554
1758.76	0.000542834
1768.4	0.000539392
1778.05	0.000315502
1787.69	0.0021608
1797.33	0.000185736
1806.97	0.00027334
1816.62	-0.00111558
1826.26	-0.000467069
1835.9	0.000898957
1845.54	0.00173532
1855.18	0.000298888
1864.83	0.000279181
1874.47	0.00142199
1884.11	0.000962257
1893.75	-0.00218399
1903.4	0.00141324
1913.04	2.81334e-05
1922.68	-0.000445411
1932.32	0.00157762
1941.97	-0.00180282
1951.61	0.00188716
1961.25	-0.000632815
1970.89	0.000505395
1980.54	0.00503439
1990.18	-0.0019983
1999.82	-0.000835583
2009.46	-0.000243559
2019.11	0.000505835
2028.75	-0.00246286
2038.39	0.00404148
2048.03	0.00375868
2057.67	-0.000301219
2067.32	0.003072
2076.96	0.00380458
2086.6	0.00101648
2096.24	-0.00107516
2105.89	-0.00199087
2115.53	-0.000969224
2125.17	-5.93215e-05
2134.81	-0.00629006
2144.45	-0.00291087
2154.1	-0.00362167
2163.74	0.00571305
2173.38	-0.00375072
2183.02	0.00227536
2192.67	0.00150454
2202.31	-0.0020663
2211.95	-0.00204378
2221.59	-0.00293618
2231.24	0.000438713
2240.88	-0.000277318
2250.52	0.00201133
2260.16	-0.00135205
2269.8	-0.00176749
2279.45	-0.000791751
2289.09	0.00189014
2298.73	-0.000359826
2308.38	-0.000454515
2318.02	0.000214808
2327.66	7.42972e-05
2337.3	-0.000771232
2346.94	-0.0014839
2356.59	0.000147834
2366.23	0.000139907
2375.87	0.000402629
2385.51	0.00107045
2395.16	0.000168942
2404.8	-0.00109684
2414.44	0.00124467
2424.08	0.00108369
2433.72	0.00211862
2443.37	0.00105438
2453.01	-0.00165874
2462.65	-0.00122409
2472.29	-5.26756e-05
2481.94	-0.00098031
2491.58	0.00112524
2501.22	0.000755809
2510.86	0.000445865
2520.51	-6.3479e-06
2530.15	-0.00194192
2539.79	0.00109739
2549.43	-0.00142043
2559.07	0.00106079
2568.72	-0.00145392
2578.36	-0.00154149
2588	-0.00110455
2597.64	-0.000169657
2607.29	-0.000524767
2616.93	-0.00038036
2626.57	-0.000463724
2636.21	-0.000743307
2645.86	-0.000714257
2655.5	-0.000826933
2665.14	-0.00157576
2674.78	0.000507385
2684.43	0.000590131
2694.07	0.000471279
2703.71	-0.000398293
2713.35	-0.000775427
2722.99	-0.00105608
2732.64	0.000624254
2742.28	0.000239864
2751.92	0.00056348
2761.56	-0.000539809
2771.21	0.000587814
2780.85	0.000227168
2790.49	-0.000147566
2800.13	-0.0010597
2809.78	0.00041604
2819.42	0.000495508
2829.06	0.000849545
2838.7	-0.000752598
2848.34	-0.00136483
2857.99	-0.000132725
2867.63	0.00215039
2877.27	6.34342e-05
2886.91	-0.0016516
2896.56	2.65241e-06
2906.2	-0.000480011
2915.84	-0.00061962
2925.48	0.00118086
2935.13	0.000236109
2944.77	-0.0019775
2954.41	-0.000570014
2964.05	-0.000703007
2973.7	6.67572e-06
2983.34	-0.000811383
2992.98	0.000397488
3002.62	-0.000526294
3012.26	0.000235289
3021.91	-0.000264719
3031.55	-0.00106023
3041.19	0.000235379
3050.83	0.00105244
3060.48	0.001185
3070.12	-0.000620142
3079.76	0.00124738
3089.4	-0.000717193
3099.05	-0.00217629
3108.69	0.000383437
3118.33	-0.0013089
3127.97	-0.000365615
3137.61	0.00117038
3147.26	-0.00361806
3156.9	-0.00119981
3166.54	0.000344604
3176.18	-0.00231542
3185.83	0.000974134
3195.47	0.000129774
3205.11	0.00195675
3214.75	-0.00205483
3224.4	-0.000644669
3234.04	0.000841692
3243.68	-0.00163996
3253.32	-0.00256148
3262.97	-0.000971586
3272.61	-0.00056611
3282.25	-0.00202851
3291.89	-0.00343253
3301.53	-0.000952452
3311.18	-0.00211747
3320.82	0.00307181
3330.46	-0.000887558
3340.1	0.000378042
3349.75	-0.000940293
3359.39	0.000132382
3369.03	-0.00112365
3378.67	-0.00138885
3388.32	0.00244509
3397.96	-0.00324713
3407.6	-0.000132874
3417.24	0.00155318
3426.89	0.000371546
3436.53	-0.00229275
3446.17	-0.00116807
3455.81	-0.00162008
3465.45	0.000165314
3475.1	-0.00126819
3484.74	0.00475822
3494.38	-0.00183344
3504.02	0.000252083
3513.67	-0.00309408
3523.31	0.00148225
3532.95	0.00228238
3542.59	3.72231e-05
3552.24	-0.00237656
3561.88	0.00174662
3571.52	-0.00313118
3581.16	-0.000523642
3590.8	0.000311106
3600.45	-0.00155424
3610.09	0.00196753
3619.73	-0.00465749
3629.38	0.00405529
3639.02	0.00149342
3648.66	-0.00276516
3658.3	-0.00112268
3667.94	0.00199898
3677.59	-0.00809661
3687.23	0.000147805
3696.87	0.000243515
3706.51	-0.000647798
3716.16	-0.000448734
3725.8	-0.000536621
3735.44	-0.00246061
3745.08	0.00212851
3754.72	-0.00382552
3764.37	0.000320077
3774.01	-0.00202267
3783.65	0.0017872
3793.29	-0.00246446
3802.94	0.00140926
3812.58	-0.00154123
3822.22	-0.0032706
3831.86	-0.000439778
3841.51	0.00409956
3851.15	-0.0016354
3860.79	-0.00117569
3870.43	-0.00227773
3880.07	0.00298715
3889.72	-0.00276162
3899.36	0.00474802
3909	-0.00238635
3918.64	-0.000437781
3928.29	0.000302538
3937.93	0.00143976
3947.57	0.000843182
3957.21	0.00409837
3966.86	-0.000944108
3976.5	-0.00175948
3986.14	0.00333112
3995.78	0.000399083
