Measurement: Infrared, Infrared Data Processed
Mineral: Baddeleyite
Rruff sample: R060078
Ideal chemistry: Zr^4+^O_2_
Locality: Wetloo mine, Mogok, Burma
Source: Marcus Origlieri
Description: Dark brown fragment
Measured chemistry: (Zr_0.99_Hf_0.01_)_Î£=1_O_2_
x	intensity
399.193	0.371995
408.835	0.334154
418.477	0.298552
428.12	0.276126
437.762	0.282706
447.404	0.29376
457.047	0.294508
466.689	0.336042
476.331	0.374398
485.974	0.365067
495.616	0.330122
505.258	0.293423
514.901	0.258981
524.543	0.231366
534.185	0.209387
543.828	0.191089
553.47	0.189843
563.112	0.211863
572.755	0.219187
582.397	0.200356
592.039	0.177761
601.682	0.160172
611.324	0.146271
620.966	0.134709
630.609	0.128631
640.251	0.127736
649.893	0.12915
659.536	0.129927
669.178	0.131033
678.82	0.131843
688.463	0.132338
698.105	0.133205
707.747	0.136752
717.39	0.142833
727.032	0.141191
736.674	0.130097
746.317	0.116423
755.959	0.102632
765.601	0.0887259
775.244	0.0757463
784.886	0.0639852
794.528	0.0534104
804.171	0.0411768
813.813	0.0298329
823.455	0.0240094
833.098	0.0216951
842.74	0.0204767
852.382	0.0195548
862.025	0.018334
871.667	0.0172609
881.309	0.015925
890.952	0.0148382
900.594	0.0145192
910.236	0.0140518
919.879	0.0143994
929.521	0.0139904
939.163	0.0137279
948.806	0.0131033
958.448	0.0124356
968.09	0.0118808
977.733	0.0111969
987.375	0.00994585
997.017	0.00957172
1006.66	0.00964413
1016.3	0.00902432
1025.94	0.00800606
1035.59	0.00773418
1045.23	0.00773519
1054.87	0.00799197
1064.51	0.00832131
1074.16	0.00797698
1083.8	0.00696506
1093.44	0.00577633
1103.08	0.00467961
1112.72	0.00336124
1122.37	0.00245118
1132.01	0.00170439
1141.65	0.000757222
1151.3	0.000433135
1160.94	-1.74167e-05
1170.58	-0.00020442
1180.22	-0.000294799
1189.86	-0.00046633
1199.51	-0.000515129
1209.15	-0.000550408
1218.79	-0.000589287
1228.43	-0.000870278
1238.08	-0.00065936
1247.72	-0.000780186
1257.36	-0.000870716
1267	-0.000559252
1276.64	-0.000237988
1286.29	-0.000307705
1295.93	-0.000376517
1305.57	-0.000417177
1315.21	-0.000486223
1324.86	-0.000322057
1334.5	-0.000386486
1344.14	-0.000160636
1353.78	5.99753e-05
1363.43	-4.13973e-05
1373.07	0.000513956
1382.71	0.00109293
1392.35	0.00124394
1401.99	0.00166657
1411.64	0.00204953
1421.28	0.00138559
1430.92	0.00210611
1440.57	0.00244298
1450.21	0.00253078
1459.85	0.00186766
1469.49	0.00184514
1479.13	0.00198821
1488.78	0.00100497
1498.42	0.00115897
1508.06	-2.224e-06
1517.7	0.0016755
1527.35	0.00275505
1536.99	0.00257919
1546.63	0.00367897
1556.27	0.00206743
1565.91	0.00437585
1575.56	0.00215637
1585.2	0.00442192
1594.84	0.00462389
1604.48	0.00439772
1614.13	0.0037612
1623.77	0.00360083
1633.41	0.00342887
1643.05	0.00410753
1652.7	-0.00128287
1662.34	0.00342872
1671.98	0.00347298
1681.62	0.00325093
1691.27	0.00425167
1700.91	0.000779338
1710.55	0.00403083
1720.19	0.00354959
1729.84	0.00458242
1739.48	0.00303263
1749.12	0.00218379
1758.76	0.00322703
1768.4	0.00301006
1778.05	0.00382474
1787.69	0.00410862
1797.33	0.00386482
1806.97	0.00411194
1816.62	0.00404919
1826.26	0.00435173
1835.9	0.00399849
1845.54	0.00368582
1855.18	0.0045758
1864.83	0.0044312
1874.47	0.00454343
1884.11	0.00472152
1893.75	0.00439087
1903.4	0.00456479
1913.04	0.00420313
1922.68	0.00391331
1932.32	0.00427388
1941.97	0.00299686
1951.61	0.00356747
1961.25	0.00242033
1970.89	0.00136376
1980.54	0.00348011
1990.18	0.0019894
1999.82	0.00138333
2009.46	0.00138106
2019.11	0.00155088
2028.75	0.00120568
2038.39	0.00290547
2048.03	0.00232545
2057.67	0.00133003
2067.32	0.00249375
2076.96	0.00286804
2086.6	0.0025813
2096.24	0.00232018
2105.89	0.00269572
2115.53	0.00132733
2125.17	0.00139664
2134.81	-1.07288e-05
2144.45	-0.00212757
2154.1	-0.00248614
2163.74	0.000456765
2173.38	-0.000838369
2183.02	-0.000318915
2192.67	0.000558689
2202.31	-0.0010296
2211.95	-0.00130621
2221.59	-0.00180425
2231.24	-0.00177614
2240.88	-0.000712827
2250.52	-0.00157337
2260.16	-0.00202802
2269.8	-0.00158371
2279.45	-0.00140572
2289.09	-0.00113589
2298.73	-0.00142782
2308.38	-0.00184767
2318.02	-0.000664115
2327.66	-0.000202693
2337.3	-5.25639e-05
2346.94	-0.000924431
2356.59	0.000202745
2366.23	0.000418492
2375.87	-0.0011955
2385.51	-0.00146837
2395.16	-0.00130091
2404.8	-0.000319928
2414.44	-1.00881e-05
2424.08	0.00013046
2433.72	2.24262e-05
2443.37	0.000520706
2453.01	0.000843786
2462.65	0.00106955
2472.29	0.000924707
2481.94	0.00112081
2491.58	0.00113018
2501.22	0.000924707
2510.86	0.00138694
2520.51	0.000882462
2530.15	0.000840984
2539.79	0.00162756
2549.43	0.00135229
2559.07	0.00156344
2568.72	0.00142577
2578.36	0.00117947
2588	0.00168939
2597.64	0.00154591
2607.29	0.00125044
2616.93	0.0012297
2626.57	0.00208893
2636.21	0.00148523
2645.86	0.00132877
2655.5	0.00118554
2665.14	0.000441909
2674.78	0.000312798
2684.43	0.000154331
2694.07	0.000529014
2703.71	0.000172518
2713.35	7.20844e-05
2722.99	0.000130258
2732.64	0.000177503
2742.28	0.000202276
2751.92	-0.000186846
2761.56	-0.0006129
2771.21	-0.000258446
2780.85	-0.000541002
2790.49	-0.000485644
2800.13	-0.000536352
2809.78	-0.000989288
2819.42	-0.000781044
2829.06	-0.000335738
2838.7	-1.57505e-05
2848.34	-0.00136109
2857.99	-0.000641286
2867.63	-0.000514582
2877.27	-0.000619128
2886.91	-0.000660777
2896.56	-0.000481904
2906.2	7.7188e-05
2915.84	-0.00175139
2925.48	-0.00119837
2935.13	-0.00127724
2944.77	-0.000793606
2954.41	-0.000160024
2964.05	-0.000208721
2973.7	-0.00078848
2983.34	-0.000143111
2992.98	-0.00013876
3002.62	-0.000347033
3012.26	0.00103045
3021.91	0.0011355
3031.55	0.00111176
3041.19	0.00141741
3050.83	0.00184074
3060.48	0.00166406
3070.12	0.00172794
3079.76	0.00198965
3089.4	0.00240627
3099.05	0.00246797
3108.69	0.00232322
3118.33	0.00271359
3127.97	0.00192638
3137.61	0.00296894
3147.26	0.00242104
3156.9	0.0022684
3166.54	0.00212027
3176.18	0.00203249
3185.83	0.00162625
3195.47	0.00200674
3205.11	0.00143027
3214.75	0.00191688
3224.4	0.000926361
3234.04	0.000924841
3243.68	0.00137495
3253.32	0.000486806
3262.97	0.000419229
3272.61	5.26011e-06
3282.25	-0.000449777
3291.89	0.000187621
3301.53	1.64211e-05
3311.18	-0.00014016
3320.82	-9.8452e-05
3330.46	-0.000213221
3340.1	-0.000398442
3349.75	-0.000470623
3359.39	-0.000252947
3369.03	-0.000132188
3378.67	0.00028035
3388.32	-0.000665963
3397.96	-0.000235394
3407.6	-0.000485018
3417.24	-0.000500008
3426.89	-0.000464767
3436.53	-9.20892e-05
3446.17	-0.00108773
3455.81	-0.000624687
3465.45	-0.00010258
3475.1	5.84722e-05
3484.74	0.000418544
3494.38	0.00070484
3504.02	-0.000148192
3513.67	0.00101261
3523.31	0.000146046
3532.95	0.000691533
3542.59	0.000458494
3552.24	-0.000312298
3561.88	0.000545517
3571.52	0.00114988
3581.16	0.000913501
3590.8	4.52995e-06
3600.45	0.000991002
3610.09	-0.000435725
3619.73	-0.000528157
3629.37	-0.00291823
3639.02	0.0011998
3648.66	-0.00354099
3658.3	0.00138749
3667.94	0.000771552
3677.59	-0.000747025
3687.23	-0.00234872
3696.87	0.00243411
3706.51	0.00226106
3716.16	0.00210705
3725.8	0.000856698
3735.44	-0.00150499
3745.08	-0.00566362
3754.72	0.00122219
3764.37	0.00158301
3774.01	0.00247669
3783.65	0.00204179
3793.29	0.00171039
3802.94	-0.000213042
3812.58	0.00172128
3822.22	-0.000838772
3831.86	3.67761e-05
3841.51	-0.000588834
3851.15	-0.00417726
3860.79	0.000181138
3870.43	-0.00340269
3880.07	-0.000684604
3889.72	-0.000379637
3899.36	-0.00187039
3909	0.000347868
3918.64	0.000594214
3928.29	-7.88271e-05
3937.93	0.00015837
3947.57	1.47373e-05
3957.21	0.000148103
3966.86	-0.000870645
3976.5	-0.00110768
3986.14	-0.00044626
3995.78	-0.00173244
