Measurement: Infrared, Infrared Data Processed
Mineral: Bahianite
Rruff sample: R050627
Ideal chemistry: Al_5_Sb^5+^_3_O_14_(OH)_2_
Locality: Paramirim Region, Bahia, Brazil
Source: Gemological Center
Description: Brown water worn pebble
Measured chemistry: Al_5.00_Sb^5+^_3.00_O_14_(OH)_2_
x	intensity
399.193	0.219815
408.835	0.224821
418.477	0.210146
428.12	0.20276
437.762	0.21153
447.404	0.213535
457.047	0.20689
466.689	0.20318
476.331	0.205055
485.974	0.196211
495.616	0.182948
505.258	0.18619
514.901	0.188402
524.543	0.187183
534.185	0.202525
543.828	0.203384
553.47	0.189074
563.112	0.179165
572.755	0.176521
582.397	0.17255
592.039	0.182322
601.682	0.197798
611.324	0.199737
620.966	0.19154
630.609	0.195433
640.251	0.207511
649.893	0.219059
659.536	0.222826
669.178	0.213545
678.82	0.200334
688.463	0.180055
698.105	0.165445
707.747	0.169119
717.39	0.161561
727.032	0.145239
736.674	0.128206
746.317	0.115402
755.959	0.113695
765.601	0.110755
775.244	0.103737
784.886	0.0945228
794.528	0.0913854
804.171	0.0892281
813.813	0.0853409
823.455	0.0792524
833.098	0.0712006
842.74	0.0622207
852.382	0.0539142
862.025	0.0468454
871.667	0.0430121
881.309	0.0470394
890.952	0.0571641
900.594	0.0681186
910.236	0.0710313
919.879	0.0669823
929.521	0.0625246
939.163	0.061351
948.806	0.0618193
958.448	0.0623753
968.09	0.0639873
977.733	0.0604707
987.375	0.0500168
997.017	0.0402091
1006.66	0.0332938
1016.3	0.02741
1025.94	0.0258802
1035.59	0.0266004
1045.23	0.026776
1054.87	0.0289171
1064.51	0.0267457
1074.16	0.0271895
1083.8	0.0256815
1093.44	0.0250327
1103.08	0.0237093
1112.72	0.0221872
1122.37	0.0218071
1132.01	0.0187601
1141.65	0.0157396
1151.3	0.0135376
1160.94	0.0131337
1170.58	0.0125718
1180.22	0.011932
1189.86	0.0110347
1199.51	0.00998312
1209.15	0.00858968
1218.79	0.00722052
1228.43	0.00646302
1238.08	0.00587705
1247.72	0.00554578
1257.36	0.00534427
1267	0.00583057
1276.64	0.00595041
1286.29	0.00548586
1295.93	0.0054606
1305.57	0.00578278
1315.21	0.00617242
1324.86	0.00586469
1334.5	0.00637396
1344.14	0.00658174
1353.78	0.00635656
1363.43	0.00683373
1373.07	0.0064908
1382.71	0.00679711
1392.35	0.00749071
1401.99	0.0080347
1411.64	0.00850987
1421.28	0.00811077
1430.92	0.00873488
1440.57	0.00837807
1450.21	0.00831552
1459.85	0.00805461
1469.49	0.00809967
1479.13	0.00971486
1488.78	0.0100003
1498.42	0.0100987
1508.06	0.00983531
1517.7	0.0105632
1527.35	0.0106557
1536.99	0.010823
1546.63	0.0115068
1556.27	0.0114486
1565.91	0.012039
1575.56	0.0121199
1585.2	0.0120349
1594.84	0.0117592
1604.48	0.011802
1614.13	0.0123496
1623.77	0.0118669
1633.41	0.0117515
1643.05	0.0124639
1652.7	0.0122412
1662.34	0.0127609
1671.98	0.0124979
1681.62	0.0130212
1691.27	0.0131457
1700.91	0.0122428
1710.55	0.0112556
1720.19	0.0122539
1729.84	0.01103
1739.48	0.00845495
1749.12	0.0093575
1758.76	0.0140449
1768.4	0.0148653
1778.05	0.015059
1787.69	0.0154581
1797.33	0.0157602
1806.97	0.0163337
1816.62	0.0156989
1826.26	0.0162212
1835.9	0.0163923
1845.54	0.016222
1855.18	0.0163543
1864.83	0.0174009
1874.47	0.0162269
1884.11	0.0170563
1893.75	0.0179895
1903.4	0.0172136
1913.04	0.0175193
1922.68	0.0183721
1932.32	0.0183095
1941.97	0.0164258
1951.61	0.0184754
1961.25	0.0203069
1970.89	0.0214141
1980.54	0.0231817
1990.18	0.0212642
1999.82	0.0198824
2009.46	0.0185814
2019.11	0.020684
2028.75	0.0206897
2038.39	0.0237469
2048.03	0.0241608
2057.67	0.0226218
2067.32	0.0214717
2076.96	0.0220866
2086.6	0.0220808
2096.24	0.0205309
2105.89	0.0223331
2115.53	0.0209393
2125.17	0.0204602
2134.81	0.0177643
2144.45	0.0199054
2154.1	0.0186891
2163.74	0.0226898
2173.38	0.0286493
2183.02	0.025624
2192.67	0.0257396
2202.31	0.0273706
2211.95	0.0259583
2221.59	0.0237655
2231.24	0.0254591
2240.88	0.0254655
2250.52	0.0277933
2260.16	0.0280926
2269.8	0.0266465
2279.45	0.0264189
2289.09	0.0275206
2298.73	0.0270614
2308.38	0.027215
2318.02	0.0270026
2327.66	0.0261027
2337.3	0.0269041
2346.94	0.0266058
2356.59	0.0276962
2366.23	0.0264193
2375.87	0.0262649
2385.51	0.0253872
2395.16	0.0268792
2404.8	0.0256157
2414.44	0.0278903
2424.08	0.0278088
2433.72	0.0285946
2443.37	0.0280999
2453.01	0.0284864
2462.65	0.0292431
2472.29	0.0282563
2481.94	0.0293579
2491.58	0.0287157
2501.22	0.0265159
2510.86	0.0288547
2520.51	0.0290565
2530.15	0.0294204
2539.79	0.0294049
2549.43	0.0287079
2559.07	0.0300725
2568.72	0.0319344
2578.36	0.0310729
2588	0.0307709
2597.64	0.031177
2607.29	0.0315808
2616.93	0.0317671
2626.57	0.0320008
2636.21	0.031302
2645.86	0.0314456
2655.5	0.0320896
2665.14	0.0302964
2674.78	0.0317065
2684.43	0.0305849
2694.07	0.0311727
2703.71	0.0308146
2713.35	0.0329027
2722.99	0.031759
2732.64	0.0319611
2742.28	0.0314499
2751.92	0.0309079
2761.56	0.0332955
2771.21	0.033566
2780.85	0.0332439
2790.49	0.0325824
2800.13	0.0330948
2809.78	0.0350441
2819.42	0.0332916
2829.06	0.0351389
2838.7	0.0336696
2848.34	0.0332515
2857.99	0.0353606
2867.63	0.0334985
2877.27	0.0349958
2886.91	0.0351914
2896.56	0.0348403
2906.2	0.0333503
2915.84	0.0363437
2925.48	0.0346938
2935.13	0.0374017
2944.77	0.0370445
2954.41	0.0373922
2964.05	0.0400874
2973.7	0.0391848
2983.34	0.0409732
2992.98	0.041531
3002.62	0.0415212
3012.26	0.0437178
3021.91	0.0438804
3031.55	0.0416624
3041.19	0.0452877
3050.83	0.0437319
3060.48	0.0462501
3070.12	0.0449891
3079.76	0.0475085
3089.4	0.0501877
3099.05	0.0497467
3108.69	0.0519738
3118.33	0.0530346
3127.97	0.0581973
3137.61	0.0597893
3147.26	0.062148
3156.9	0.0653155
3166.54	0.0674636
3176.18	0.0674845
3185.83	0.070138
3195.47	0.0712207
3205.11	0.0666111
3214.75	0.0606273
3224.4	0.0545649
3234.04	0.0488958
3243.68	0.0445724
3253.32	0.0406797
3262.97	0.0393799
3272.61	0.0369865
3282.25	0.0366735
3291.89	0.0364178
3301.53	0.0345104
3311.18	0.0334394
3320.82	0.0340397
3330.46	0.0345328
3340.1	0.033233
3349.75	0.0339892
3359.39	0.0334788
3369.03	0.0368219
3378.67	0.0309076
3388.32	0.0373571
3397.96	0.0328201
3407.6	0.034804
3417.24	0.033058
3426.89	0.0354182
3436.53	0.0350808
3446.17	0.0328947
3455.81	0.0321542
3465.45	0.0339634
3475.1	0.0360546
3484.74	0.033837
3494.38	0.040171
3504.02	0.0367101
3513.67	0.0388938
3523.31	0.0353405
3532.95	0.0360153
3542.59	0.0347294
3552.24	0.0344069
3561.88	0.0364861
3571.52	0.0342472
3581.16	0.0354708
3590.8	0.0360405
3600.45	0.034648
3610.09	0.0362714
3619.73	0.0352034
3629.37	0.0382176
3639.02	0.0380808
3648.66	0.0386847
3658.3	0.0384466
3667.94	0.03944
3677.59	0.0379522
3687.23	0.0370223
3696.87	0.0389919
3706.51	0.0400718
3716.16	0.0384912
3725.8	0.0365279
3735.44	0.0350073
3745.08	0.0374721
3754.72	0.0397478
3764.37	0.0371801
3774.01	0.0377916
3783.65	0.0402832
3793.29	0.0402025
3802.94	0.0383111
3812.58	0.0402989
3822.22	0.0430015
3831.86	0.0393973
3841.51	0.0382944
3851.15	0.0429394
3860.79	0.0402114
3870.43	0.0379899
3880.07	0.0360631
3889.72	0.0398939
3899.36	0.0384296
3909	0.0397519
3918.64	0.0435099
3928.29	0.0396396
3937.93	0.0408164
3947.57	0.0414877
3957.21	0.0412685
3966.86	0.0462575
3976.5	0.0437761
3986.14	0.0417686
3995.78	0.0362454
