Measurement: Infrared, Infrared Data Processed
Mineral: Baryte
Rruff sample: R050335
Ideal chemistry: BaS^6+^O_4_
Locality: Bullion Mountains, San Bernardino County, California, USA
Source: California Institute of Technology
Description: Colorless cleavage fragment
Measured chemistry: (Ba_0.95_Sr_0.05_)_Î£=1_S_1.00_O_4_
x	intensity
399.193	0.0043735
408.835	0.00727723
418.477	0.00707283
428.12	0.00748353
437.762	0.00832194
447.404	0.00881826
457.047	0.0106749
466.689	0.0120619
476.331	0.0123193
485.974	0.0120839
495.616	0.0139556
505.258	0.0156905
514.901	0.0181548
524.543	0.0212381
534.185	0.0254406
543.828	0.0309207
553.47	0.041442
563.112	0.0562689
572.755	0.0848233
582.397	0.149601
592.039	0.262214
601.682	0.381001
611.324	0.272834
620.966	0.139589
630.609	0.161963
640.251	0.117622
649.893	0.0476801
659.536	0.0189171
669.178	0.00968035
678.82	0.00707512
688.463	0.00668741
698.105	0.00809436
707.747	0.00848772
717.39	0.00893999
727.032	0.00997149
736.674	0.0101712
746.317	0.011168
755.959	0.0120456
765.601	0.0130664
775.244	0.0146928
784.886	0.0152735
794.528	0.0167886
804.171	0.0179392
813.813	0.018943
823.455	0.0201825
833.098	0.0211402
842.74	0.0223067
852.382	0.0238799
862.025	0.0262757
871.667	0.0292382
881.309	0.0331787
890.952	0.0367653
900.594	0.0415961
910.236	0.0470596
919.879	0.0529767
929.521	0.0610891
939.163	0.0706681
948.806	0.0850552
958.448	0.105104
968.09	0.136909
977.733	0.212496
987.375	0.156815
997.017	0.171237
1006.66	0.228102
1016.3	0.28721
1025.94	0.34993
1035.59	0.418519
1045.23	0.48922
1054.87	0.550247
1064.51	0.56727
1074.16	0.528836
1083.8	0.478188
1093.44	0.423606
1103.08	0.370322
1112.72	0.324424
1122.37	0.28194
1132.01	0.242821
1141.65	0.209085
1151.3	0.187812
1160.94	0.179829
1170.58	0.172164
1180.22	0.166632
1189.86	0.148464
1199.51	0.120407
1209.15	0.0916167
1218.79	0.0645655
1228.43	0.0403534
1238.08	0.0184745
1247.72	0.0113028
1257.36	0.00716427
1267	0.00528195
1276.64	0.00372877
1286.29	0.0021755
1295.93	0.00192358
1305.57	0.00154779
1315.21	0.00125277
1324.86	0.00143343
1334.5	0.00134488
1344.14	0.00164095
1353.78	0.0010171
1363.43	0.00077871
1373.07	0.000960496
1382.71	0.000841841
1392.35	0.00104889
1401.99	0.0010785
1411.64	0.00162458
1421.28	0.00167071
1430.92	0.00160094
1440.57	0.00165241
1450.21	0.00158793
1459.85	0.000960014
1469.49	0.00178836
1479.13	0.00283513
1488.78	0.00307295
1498.42	0.00328863
1508.06	0.00365536
1517.7	0.00372434
1527.35	0.00459736
1536.99	0.00523264
1546.63	0.00541129
1556.27	0.00603378
1565.91	0.0052974
1575.56	0.00562355
1585.2	0.00572878
1594.84	0.00636494
1604.48	0.00504944
1614.13	0.00548825
1623.77	0.00548731
1633.41	0.00574509
1643.05	0.00559599
1652.7	0.00511981
1662.34	0.00546229
1671.98	0.00500348
1681.62	0.00517239
1691.27	0.00510453
1700.91	0.00428569
1710.55	0.00288435
1720.19	0.00348035
1729.84	0.00299352
1739.48	0.0013
1749.12	0.0019154
1758.76	0.00504141
1768.4	0.00582575
1778.05	0.00606864
1787.69	0.00624891
1797.33	0.00611621
1806.97	0.00617003
1816.62	0.00612105
1826.26	0.00699689
1835.9	0.00692074
1845.54	0.00751089
1855.18	0.00767486
1864.83	0.00705559
1874.47	0.00660992
1884.11	0.00683867
1893.75	0.00672473
1903.4	0.00542191
1913.04	0.00608019
1922.68	0.00494945
1932.32	0.0065892
1941.97	0.00225884
1951.61	0.00168023
1961.25	0.000852043
1970.89	0.00206668
1980.54	0.00616304
1990.18	0.00437891
1999.82	0.00184139
2009.46	-1.6046e-05
2019.11	0.00107228
2028.75	-0.000668389
2038.39	0.00257093
2048.03	0.00904791
2057.67	0.00538619
2067.32	0.00643233
2076.96	0.00636758
2086.6	0.00616371
2096.24	0.00648386
2105.89	0.00619778
2115.53	0.00547486
2125.17	0.00495284
2134.81	0.00241584
2144.45	-0.00305643
2154.1	-0.00548241
2163.74	-0.00184072
2173.38	0.00122206
2183.02	0.000938906
2192.67	0.00281593
2202.31	0.00382397
2211.95	0.00259455
2221.59	0.00446182
2231.24	0.00537851
2240.88	0.00605019
2250.52	0.00658426
2260.16	0.0078196
2269.8	0.00770757
2279.45	0.00957735
2289.09	0.0101707
2298.73	0.00995474
2308.38	0.0119732
2318.02	0.0116979
2327.66	0.0122841
2337.3	0.0111769
2346.94	0.0102021
2356.59	0.0119517
2366.23	0.0098431
2375.87	0.0115014
2385.51	0.0103973
2395.16	0.00975753
2404.8	0.00904585
2414.44	0.0101532
2424.08	0.0118855
2433.72	0.0122939
2443.37	0.0125337
2453.01	0.0113221
2462.65	0.0141314
2472.29	0.0139951
2481.94	0.0121409
2491.58	0.0133945
2501.22	0.0140485
2510.86	0.0147847
2520.51	0.0135905
2530.15	0.0150986
2539.79	0.0144836
2549.43	0.0151097
2559.07	0.015064
2568.72	0.0152153
2578.36	0.0150721
2588	0.0146379
2597.64	0.015888
2607.29	0.0156629
2616.93	0.0151278
2626.57	0.0167417
2636.21	0.0166518
2645.86	0.0159686
2655.5	0.0162208
2665.14	0.0167089
2674.78	0.0160978
2684.43	0.0149608
2694.07	0.0152855
2703.71	0.0160876
2713.35	0.0164256
2722.99	0.0164685
2732.64	0.0167103
2742.28	0.015827
2751.92	0.0171701
2761.56	0.0161318
2771.21	0.0166214
2780.85	0.0179532
2790.49	0.0169718
2800.13	0.0171556
2809.78	0.0183235
2819.42	0.0166968
2829.06	0.0163077
2838.7	0.017203
2848.34	0.0161116
2857.99	0.0183403
2867.63	0.0160138
2877.27	0.0177088
2886.91	0.0177926
2896.56	0.0176187
2906.2	0.0149108
2915.84	0.017476
2925.48	0.0169167
2935.13	0.0181409
2944.77	0.0167262
2954.41	0.0191581
2964.05	0.020171
2973.7	0.0184637
2983.34	0.0192945
2992.98	0.0197164
3002.62	0.0210296
3012.26	0.0185055
3021.91	0.0214605
3031.55	0.0186315
3041.19	0.0208582
3050.83	0.0187831
3060.48	0.021457
3070.12	0.0190428
3079.76	0.0183444
3089.4	0.0224421
3099.05	0.0214026
3108.69	0.0206823
3118.33	0.0208925
3127.97	0.0216794
3137.61	0.0212673
3147.26	0.0204252
3156.9	0.0191913
3166.54	0.0192443
3176.18	0.0208947
3185.83	0.0203457
3195.47	0.0200489
3205.11	0.0235331
3214.75	0.0233613
3224.4	0.024162
3234.04	0.0195694
3243.68	0.0227113
3253.32	0.0213375
3262.97	0.0226748
3272.61	0.0238799
3282.25	0.0212969
3291.89	0.0208435
3301.53	0.0238387
3311.18	0.0230055
3320.82	0.0220001
3330.46	0.024311
3340.1	0.0259148
3349.75	0.0246777
3359.39	0.0238264
3369.03	0.0212286
3378.67	0.0250117
3388.32	0.0250784
3397.96	0.0257373
3407.6	0.0245591
3417.24	0.0279612
3426.89	0.0239038
3436.53	0.0252106
3446.17	0.0218061
3455.81	0.0243127
3465.45	0.0256837
3475.1	0.0282078
3484.74	0.0254911
3494.38	0.0254149
3504.02	0.0240994
3513.67	0.0233276
3523.31	0.0258327
3532.95	0.0256491
3542.59	0.0265133
3552.24	0.0248646
3561.88	0.027708
3571.52	0.0272289
3581.16	0.0234416
3590.8	0.0258703
3600.45	0.0240204
3610.09	0.027179
3619.73	0.027137
3629.37	0.0219413
3639.02	0.0269067
3648.66	0.0252636
3658.3	0.0301504
3667.94	0.022969
3677.59	0.0271458
3687.23	0.0240148
3696.87	0.0275345
3706.51	0.0287846
3716.16	0.0258871
3725.8	0.02499
3735.44	0.0287286
3745.08	0.0317519
3754.72	0.0285387
3764.37	0.0269377
3774.01	0.0260974
3783.65	0.0325717
3793.29	0.0277647
3802.94	0.0279854
3812.58	0.0273324
3822.22	0.0262518
3831.86	0.0294036
3841.51	0.0272374
3851.15	0.0314904
3860.79	0.0274488
3870.43	0.0276164
3880.07	0.0263095
3889.72	0.0293043
3899.36	0.0250248
3909	0.0297356
3918.64	0.0314704
3928.29	0.0246858
3937.93	0.0260782
3947.57	0.0330764
3957.21	0.029148
3966.86	0.0283195
3976.5	0.0334267
3986.14	0.0285985
3995.78	0.0275196
