Measurement: Infrared, Infrared Data Processed
Mineral: Baryte
Rruff sample: R040036
Ideal chemistry: BaS^6+^O_4_
Locality: Cumbria County, England
Source: University of Arizona Mineral Museum
Description: Golden brown tabular crystal
Measured chemistry: Ba_1.00_S_1.00_O_4_; trace amounts of Pb
x	intensity
399.193	0
408.835	0.00647168
418.477	0.00546553
428.12	0.00691397
437.762	0.00765987
447.404	0.00826536
457.047	0.00908802
466.689	0.0104929
476.331	0.0100089
485.974	0.0102793
495.616	0.0118893
505.258	0.0129189
514.901	0.0150163
524.543	0.017353
534.185	0.0216962
543.828	0.0261962
553.47	0.0337447
563.112	0.047222
572.755	0.0756059
582.397	0.142447
592.039	0.276843
601.682	0.405477
611.324	0.290368
620.966	0.140734
630.609	0.169423
640.251	0.125716
649.893	0.0496266
659.536	0.018489
669.178	0.00930212
678.82	0.0068872
688.463	0.00682487
698.105	0.00774109
707.747	0.00812277
717.39	0.00839444
727.032	0.00847654
736.674	0.00958736
746.317	0.0108974
755.959	0.0101272
765.601	0.0114556
775.244	0.0126124
784.886	0.0138241
794.528	0.0145057
804.171	0.0155167
813.813	0.0165229
823.455	0.0169008
833.098	0.0178705
842.74	0.0187796
852.382	0.0202349
862.025	0.0233387
871.667	0.0306612
881.309	0.0276181
890.952	0.0301845
900.594	0.0341221
910.236	0.0386071
919.879	0.0441604
929.521	0.0509023
939.163	0.0591612
948.806	0.0710863
958.448	0.0888832
968.09	0.118895
977.733	0.200608
987.375	0.132836
997.017	0.156961
1006.66	0.215632
1016.3	0.281875
1025.94	0.355671
1035.59	0.437786
1045.23	0.520627
1054.87	0.589871
1064.51	0.609444
1074.16	0.567467
1083.8	0.509394
1093.44	0.444671
1103.08	0.387824
1112.72	0.340638
1122.37	0.299417
1132.01	0.258131
1141.65	0.218986
1151.3	0.18959
1160.94	0.184187
1170.58	0.186393
1180.22	0.186541
1189.86	0.165782
1199.51	0.133363
1209.15	0.098624
1218.79	0.0665675
1228.43	0.0383947
1238.08	0.0205616
1247.72	0.0136824
1257.36	0.00995779
1267	0.00818734
1276.64	0.00672408
1286.29	0.00523441
1295.93	0.00460166
1305.57	0.00434767
1315.21	0.00424919
1324.86	0.00387985
1334.5	0.0040936
1344.14	0.00437202
1353.78	0.00457948
1363.43	0.00441247
1373.07	0.00462012
1382.71	0.00498392
1392.35	0.00643896
1401.99	0.00788335
1411.64	0.00766791
1421.28	0.00929911
1430.92	0.0117415
1440.57	0.0128029
1450.21	0.0127123
1459.85	0.0122301
1469.49	0.0112786
1479.13	0.0106514
1488.78	0.00953235
1498.42	0.00879109
1508.06	0.00768494
1517.7	0.00710286
1527.35	0.00697511
1536.99	0.00732261
1546.63	0.00717139
1556.27	0.00743628
1565.91	0.00750807
1575.56	0.00784648
1585.2	0.00823435
1594.84	0.00884995
1604.48	0.00812205
1614.13	0.0076908
1623.77	0.00713298
1633.41	0.00720824
1643.05	0.00709188
1652.7	0.00637524
1662.34	0.00650283
1671.98	0.00671929
1681.62	0.00653447
1691.27	0.00657526
1700.91	0.00682724
1710.55	0.00662778
1720.19	0.00695365
1729.84	0.0064616
1739.48	0.00569219
1749.12	0.00594495
1758.76	0.0064416
1768.4	0.00615529
1778.05	0.00701851
1787.69	0.00633929
1797.33	0.00651609
1806.97	0.00638163
1816.62	0.00690408
1826.26	0.00655471
1835.9	0.00645483
1845.54	0.00673255
1855.18	0.00716425
1864.83	0.0063237
1874.47	0.00651704
1884.11	0.00664459
1893.75	0.00705407
1903.4	0.00573246
1913.04	0.00602734
1922.68	0.00540853
1932.32	0.00474945
1941.97	0.00459464
1951.61	0.00217546
1961.25	0.00129549
1970.89	0.00213002
1980.54	0.00450881
1990.18	0.00288662
1999.82	-0.000121732
2009.46	-0.00145194
2019.11	0.00119844
2028.75	-0.00244005
2038.39	0.00153468
2048.03	0.00611358
2057.67	0.00438489
2067.32	0.0066711
2076.96	0.00386865
2086.6	0.00500545
2096.24	0.00459445
2105.89	0.0022149
2115.53	0.00373413
2125.17	0.00267338
2134.81	0.000470985
2144.45	-0.000903158
2154.1	-0.00775918
2163.74	-0.00468586
2173.38	-0.00196566
2183.02	-0.00160945
2192.67	0.00112919
2202.31	0.00233491
2211.95	0.00104122
2221.59	0.00161012
2231.24	0.00306624
2240.88	0.00360946
2250.52	0.00362779
2260.16	0.00606098
2269.8	0.00687018
2279.45	0.00784611
2289.09	0.00915148
2298.73	0.00883175
2308.38	0.00878643
2318.02	0.00887593
2327.66	0.00856302
2337.3	0.00890093
2346.94	0.00868081
2356.59	0.00887892
2366.23	0.00806229
2375.87	0.00842416
2385.51	0.00891091
2395.16	0.00775206
2404.8	0.00993567
2414.44	0.00998685
2424.08	0.0100477
2433.72	0.0105463
2443.37	0.00923769
2453.01	0.0117062
2462.65	0.0115787
2472.29	0.0119555
2481.94	0.0118097
2491.58	0.0115475
2501.22	0.0125842
2510.86	0.0140447
2520.51	0.0130841
2530.15	0.0120634
2539.79	0.014762
2549.43	0.0144707
2559.07	0.0130978
2568.72	0.0140945
2578.36	0.0136583
2588	0.0153386
2597.64	0.0139144
2607.29	0.01404
2616.93	0.014742
2626.57	0.0144179
2636.21	0.0146338
2645.86	0.0142829
2655.5	0.0147069
2665.14	0.0144337
2674.78	0.0144121
2684.43	0.0144687
2694.07	0.0148123
2703.71	0.0147437
2713.35	0.0142936
2722.99	0.016414
2732.64	0.0153246
2742.28	0.0143942
2751.92	0.0156413
2761.56	0.0164358
2771.21	0.0153112
2780.85	0.0158985
2790.49	0.0160431
2800.13	0.0161156
2809.78	0.0152307
2819.42	0.0154332
2829.06	0.0157737
2838.7	0.0169548
2848.34	0.0155463
2857.99	0.0161593
2867.63	0.016551
2877.27	0.016869
2886.91	0.0158944
2896.56	0.0161775
2906.2	0.0159687
2915.84	0.0157689
2925.48	0.0156262
2935.13	0.0165653
2944.77	0.0175134
2954.41	0.0173305
2964.05	0.0174563
2973.7	0.0171855
2983.34	0.0167632
2992.98	0.017362
3002.62	0.0171479
3012.26	0.0172989
3021.91	0.0179435
3031.55	0.0177083
3041.19	0.0182836
3050.83	0.018278
3060.48	0.0189427
3070.12	0.0189035
3079.76	0.0178249
3089.4	0.0184919
3099.05	0.0179366
3108.69	0.0199814
3118.33	0.0189923
3127.97	0.0188004
3137.61	0.0190845
3147.26	0.0203462
3156.9	0.0202017
3166.54	0.0203446
3176.18	0.0208661
3185.83	0.0202844
3195.47	0.0201165
3205.11	0.0199415
3214.75	0.0204289
3224.4	0.0206023
3234.04	0.0218569
3243.68	0.0215369
3253.32	0.0211079
3262.97	0.0213555
3272.61	0.0230958
3282.25	0.0220152
3291.89	0.021029
3301.53	0.0225669
3311.18	0.0224471
3320.82	0.0231175
3330.46	0.0222736
3340.1	0.0233439
3349.75	0.0243356
3359.39	0.022352
3369.03	0.0231516
3378.67	0.0235777
3388.32	0.0230542
3397.96	0.022936
3407.6	0.0239388
3417.24	0.0239497
3426.89	0.023252
3436.53	0.0245526
3446.17	0.0238749
3455.81	0.0241955
3465.45	0.024132
3475.1	0.0229406
3484.74	0.0235412
3494.38	0.0228203
3504.02	0.0226899
3513.67	0.0235786
3523.31	0.0237723
3532.95	0.0228479
3542.59	0.0242867
3552.24	0.0243415
3561.88	0.0237133
3571.52	0.0226859
3581.16	0.024584
3590.8	0.0240627
3600.45	0.0228599
3610.09	0.0237662
3619.73	0.0228124
3629.37	0.0227337
3639.02	0.0246944
3648.66	0.0238039
3658.3	0.0244669
3667.94	0.0236638
3677.59	0.0217165
3687.23	0.0242163
3696.87	0.0247954
3706.51	0.0229949
3716.16	0.023268
3725.8	0.0246647
3735.44	0.0233881
3745.08	0.0235416
3754.72	0.0267644
3764.37	0.0234581
3774.01	0.023672
3783.65	0.0231902
3793.29	0.0247591
3802.94	0.0240879
3812.58	0.0249495
3822.22	0.0244268
3831.86	0.024482
3841.51	0.0258493
3851.15	0.0257476
3860.79	0.0257909
3870.43	0.0213836
3880.07	0.0252507
3889.72	0.0227245
3899.36	0.023562
3909	0.0252329
3918.64	0.025202
3928.29	0.0241444
3937.93	0.0231328
3947.57	0.0257806
3957.21	0.0258156
3966.86	0.0246329
3976.5	0.0267939
3986.14	0.0276409
3995.78	0.0275954
