Measurement: Infrared, Infrared Data Processed
Mineral: Barytocalcite
Rruff sample: R050288
Ideal chemistry: BaCa(CO_3_)_2_
Locality: Cumberland, England
Source: Marcus Origlieri
Description: Light tan elongated crystals
Measured chemistry: Ba_1.00_Ca_1.00_(CO_3_)_2_
x	intensity
399.193	0.0139021
408.835	0.00865622
418.477	0.00572384
428.12	0.00841839
437.762	0.00685549
447.404	0.00648282
457.047	0.00560389
466.689	0.00589892
476.331	0.00565349
485.974	0.0052762
495.616	0.00477342
505.258	0.00403089
514.901	0.00455522
524.543	0.00556838
534.185	0.00616828
543.828	0.00490398
553.47	0.00574555
563.112	0.00583215
572.755	0.00577367
582.397	0.00581016
592.039	0.0059062
601.682	0.00626794
611.324	0.00614526
620.966	0.00645328
630.609	0.00672438
640.251	0.00727583
649.893	0.00752021
659.536	0.00822867
669.178	0.00941616
678.82	0.0227704
688.463	0.0192988
698.105	0.0382789
707.747	0.00951353
717.39	0.011745
727.032	0.0113262
736.674	0.00775
746.317	0.00867873
755.959	0.00922982
765.601	0.00971479
775.244	0.0103416
784.886	0.0111962
794.528	0.0116887
804.171	0.0124984
813.813	0.0137058
823.455	0.0149783
833.098	0.0183599
842.74	0.0228525
852.382	0.0395319
862.025	0.16801
871.667	0.0899051
881.309	0.0671461
890.952	0.0115803
900.594	0.0117739
910.236	0.012318
919.879	0.0133148
929.521	0.0140548
939.163	0.0146528
948.806	0.0154585
958.448	0.0159039
968.09	0.017225
977.733	0.018364
987.375	0.0193395
997.017	0.0202769
1006.66	0.0214627
1016.3	0.0227314
1025.94	0.0238112
1035.59	0.025606
1045.23	0.0269539
1054.87	0.0291038
1064.51	0.0326608
1074.16	0.0454215
1083.8	0.0701422
1093.44	0.0284199
1103.08	0.0298679
1112.72	0.032356
1122.37	0.0345476
1132.01	0.0369764
1141.65	0.0395693
1151.3	0.0426476
1160.94	0.0457677
1170.58	0.0484486
1180.22	0.0518433
1189.86	0.0552897
1199.51	0.0596187
1209.15	0.064379
1218.79	0.0702527
1228.43	0.0772401
1238.08	0.0847026
1247.72	0.0938861
1257.36	0.103805
1267	0.114638
1276.64	0.126781
1286.29	0.141298
1295.93	0.159181
1305.57	0.180852
1315.21	0.206715
1324.86	0.23845
1334.5	0.277279
1344.14	0.320868
1353.78	0.377361
1363.43	0.408142
1373.07	0.349841
1382.71	0.310903
1392.35	0.414644
1401.99	0.415377
1411.64	0.380681
1421.28	0.343903
1430.92	0.314341
1440.57	0.29592
1450.21	0.291999
1459.85	0.279665
1469.49	0.256284
1479.13	0.226628
1488.78	0.184459
1498.42	0.140108
1508.06	0.161899
1517.7	0.171583
1527.35	0.150035
1536.99	0.120149
1546.63	0.090591
1556.27	0.0635685
1565.91	0.0364504
1575.56	0.0182848
1585.2	0.00981244
1594.84	0.00689782
1604.48	0.00550669
1614.13	0.00454053
1623.77	0.00277124
1633.41	0.00275694
1643.05	0.00191301
1652.7	0.00259513
1662.34	0.00123749
1671.98	0.000721826
1681.62	0.00041043
1691.27	-0.000758929
1700.91	-0.000506541
1710.55	-0.00184726
1720.19	-0.00263334
1729.84	-0.00300578
1739.48	-0.00424653
1749.12	-0.00348393
1758.76	-0.00041958
1768.4	0.00521823
1778.05	0.00270812
1787.69	0.00459474
1797.33	0.00184815
1806.97	-0.000930822
1816.62	-0.000886849
1826.26	-0.000697086
1835.9	-0.0013643
1845.54	-0.00218266
1855.18	-0.00128646
1864.83	-0.00139931
1874.47	-0.00227503
1884.11	-0.00165218
1893.75	-0.00161943
1903.4	-0.00203199
1913.04	-0.00205467
1922.68	-0.00209407
1932.32	-0.00221524
1941.97	-0.00173521
1951.61	-0.00249207
1961.25	-0.00558407
1970.89	-0.00446035
1980.54	-0.00142828
1990.18	-1.3716e-05
1999.82	0.000704652
2009.46	-0.00325734
2019.11	-0.0033039
2028.75	-0.00062231
2038.39	-0.004439
2048.03	-0.000585503
2057.67	0.000596629
2067.32	0.000130773
2076.96	0.000178807
2086.6	5.24769e-05
2096.24	0.00107757
2105.89	0.000731899
2115.53	0.00189005
2125.17	0.000672713
2134.81	-0.00326341
2144.45	-0.00596909
2154.1	-0.00700596
2163.74	-0.00464278
2173.38	-0.0011469
2183.02	-0.00111392
2192.67	0.000621885
2202.31	2.80214e-05
2211.95	0.0017929
2221.59	0.000850796
2231.24	0.00198187
2240.88	0.000790408
2250.52	0.00147482
2260.16	0.000613003
2269.8	0.00236345
2279.45	0.00201175
2289.09	0.00214985
2298.73	0.00221196
2308.38	0.00211293
2318.02	0.00212714
2327.66	0.00273708
2337.3	0.00244585
2346.94	0.00296945
2356.59	0.00188213
2366.23	0.000546455
2375.87	0.00307237
2385.51	0.0013889
2395.16	0.00244991
2404.8	0.00252231
2414.44	0.000136889
2424.08	0.00256765
2433.72	0.00373567
2443.37	0.00683447
2453.01	0.00639077
2462.65	0.00625542
2472.29	0.00577781
2481.94	0.00536942
2491.58	0.00530176
2501.22	0.00683132
2510.86	0.00470575
2520.51	0.00248872
2530.15	0.00172683
2539.79	0.00724656
2549.43	0.00285981
2559.07	0.00334254
2568.72	0.00211013
2578.36	0.00400398
2588	0.0017433
2597.64	0.001781
2607.29	0.000449576
2616.93	0.0010613
2626.57	0.000661176
2636.21	-5.02242e-05
2645.86	-0.000214942
2655.5	0.000723747
2665.14	-7.09083e-05
2674.78	-0.000410356
2684.43	-0.0018272
2694.07	-0.00177405
2703.71	-0.00185599
2713.35	-0.00189752
2722.99	-0.00151461
2732.64	-0.00173716
2742.28	-0.00163359
2751.92	-0.00132578
2761.56	-0.00155598
2771.21	-0.00208987
2780.85	-0.00102362
2790.49	-0.00105636
2800.13	-0.000360025
2809.78	-0.00182059
2819.42	-0.00211206
2829.06	-0.00215989
2838.7	-0.0036146
2848.34	-0.00796625
2857.99	-0.00719942
2867.63	-0.00370164
2877.27	-0.00248864
2886.91	-0.00114944
2896.56	-0.00363458
2906.2	-0.00461732
2915.84	-0.0114372
2925.48	-0.0121832
2935.13	-0.00735138
2944.77	-0.00527527
2954.41	-0.00729641
2964.05	-0.00455325
2973.7	-0.000835564
2983.34	-0.000734841
2992.98	-0.000746929
3002.62	0.000773159
3012.26	-0.00171448
3021.91	-0.00285225
3031.55	-0.00287328
3041.19	-0.000964995
3050.83	-0.0012453
3060.48	-0.000542209
3070.12	-0.00121161
3079.76	-0.00111978
3089.4	0.000846821
3099.05	0.00148008
3108.69	0.00242709
3118.33	0.00219036
3127.97	0.000823481
3137.61	0.00163027
3147.26	0.000310481
3156.9	0.00144896
3166.54	0.00103774
3176.18	0.00347571
3185.83	0.00227826
3195.47	0.00285149
3205.11	0.00294512
3214.75	0.00454761
3224.4	0.00392418
3234.04	0.00202984
3243.68	0.00362403
3253.32	0.00412878
3262.97	0.00174227
3272.61	0.00214537
3282.25	0.00107033
3291.89	0.00482362
3301.53	0.00403232
3311.18	0.00398843
3320.82	0.00165947
3330.46	0.00314159
3340.1	0.00202415
3349.75	0.00118186
3359.39	0.00231073
3369.03	0.000387741
3378.67	0.000703321
3388.32	0.00195702
3397.96	0.00181908
3407.6	-0.00185357
3417.24	0.00497958
3426.89	0.00249967
3436.53	0.000784516
3446.17	0.00497098
3455.81	0.000905664
3465.45	0.00601595
3475.1	0.000941481
3484.74	0.000224362
3494.38	0.00211799
3504.02	0.00225115
3513.67	0.00211056
3523.31	-0.000785118
3532.95	-0.000600171
3542.59	0.00342063
3552.24	-0.000349058
3561.88	0.00110458
3571.52	-0.00143857
3581.16	-0.00411934
3590.8	0.000167054
3600.45	0.00145455
3610.09	0.000270238
3619.73	-7.45986e-05
3629.37	0.00112624
3639.02	-0.00140384
3648.66	-0.00280131
3658.3	0.000785178
3667.94	0.00282318
3677.59	-0.000897685
3687.23	0.00147127
3696.87	-0.00596213
3706.51	0.00173479
3716.16	-0.00373861
3725.8	0.000750755
3735.44	-0.00163121
3745.08	-0.000157586
3754.72	-0.00136755
3764.37	-0.0031816
3774.01	-0.00206999
3783.65	0.000336772
3793.29	0.000115259
3802.94	0.00230766
3812.58	-0.00525843
3822.22	0.00113627
3831.86	-0.000958691
3841.51	-0.00287937
3851.15	-0.0036194
3860.79	-0.0024072
3870.43	0.00112378
3880.07	0.00175785
3889.72	-0.00480124
3899.36	-0.00118682
3909	-0.0061188
3918.64	0.000829494
3928.29	-0.00137185
3937.93	-0.00154796
3947.57	-0.00697074
3957.21	-0.00702054
3966.86	-0.00472554
3976.5	-0.00605312
3986.14	-0.00900243
3995.78	0.000608733
