Measurement: Infrared, Infrared Data Processed
Mineral: Baryte
Rruff sample: R050375
Ideal chemistry: BaS^6+^O_4_
Locality: unknown
Source: Eugene Schlepp
Description: Pale green tabular crystals
Measured chemistry: Ba_1.00_SO_4_
x	intensity
399.193	0.00227515
408.835	0.0068327
418.477	0.00186029
428.12	0.00581858
437.762	0.0073076
447.404	0.00951513
457.047	0.00868712
466.689	0.0094812
476.331	0.0105056
485.974	0.0111164
495.616	0.0134051
505.258	0.0140979
514.901	0.0171074
524.543	0.0200237
534.185	0.0246612
543.828	0.0305583
553.47	0.0357283
563.112	0.049198
572.755	0.076805
582.397	0.144939
592.039	0.280998
601.682	0.406161
611.324	0.279427
620.966	0.139176
630.609	0.173293
640.251	0.124911
649.893	0.0505106
659.536	0.0191669
669.178	0.0101215
678.82	0.00793455
688.463	0.00818278
698.105	0.00875231
707.747	0.00893444
717.39	0.0085778
727.032	0.00943107
736.674	0.0102866
746.317	0.0103858
755.959	0.0108311
765.601	0.0114628
775.244	0.0129645
784.886	0.0142138
794.528	0.0147583
804.171	0.0162586
813.813	0.0168388
823.455	0.0184408
833.098	0.0192968
842.74	0.0188161
852.382	0.0199266
862.025	0.0216253
871.667	0.0244549
881.309	0.0274574
890.952	0.0305181
900.594	0.0340094
910.236	0.0386792
919.879	0.0448319
929.521	0.0508062
939.163	0.0602291
948.806	0.0737362
958.448	0.0935067
968.09	0.125097
977.733	0.211402
987.375	0.138959
997.017	0.163986
1006.66	0.226308
1016.3	0.295387
1025.94	0.372772
1035.59	0.459798
1045.23	0.547259
1054.87	0.617124
1064.51	0.630684
1074.16	0.577601
1083.8	0.510627
1093.44	0.442459
1103.08	0.388557
1112.72	0.341694
1122.37	0.298606
1132.01	0.256783
1141.65	0.217872
1151.3	0.190287
1160.94	0.187872
1170.58	0.193003
1180.22	0.19161
1189.86	0.167333
1199.51	0.133527
1209.15	0.0988237
1218.79	0.066697
1228.43	0.0380846
1238.08	0.0206684
1247.72	0.0139177
1257.36	0.0101333
1267	0.00807117
1276.64	0.00669817
1286.29	0.00554496
1295.93	0.00433247
1305.57	0.00379484
1315.21	0.0033703
1324.86	0.00291419
1334.5	0.00336541
1344.14	0.00354021
1353.78	0.00348655
1363.43	0.00376893
1373.07	0.00327216
1382.71	0.00319177
1392.35	0.00473647
1401.99	0.00739694
1411.64	0.00370886
1421.28	0.00359842
1430.92	0.00538488
1440.57	0.00614263
1450.21	0.0042627
1459.85	0.00362421
1469.49	0.00352657
1479.13	0.00389729
1488.78	0.00433356
1498.42	0.0042044
1508.06	0.0042058
1517.7	0.00475825
1527.35	0.00530719
1536.99	0.00567647
1546.63	0.00573942
1556.27	0.00605131
1565.91	0.00584761
1575.56	0.00635125
1585.2	0.00593399
1594.84	0.00677331
1604.48	0.00690849
1614.13	0.00681541
1623.77	0.00747187
1633.41	0.00705223
1643.05	0.00721797
1652.7	0.00730757
1662.34	0.00738103
1671.98	0.00698054
1681.62	0.00662603
1691.27	0.00678782
1700.91	0.00684268
1710.55	0.0071311
1720.19	0.00695115
1729.84	0.00556582
1739.48	0.00498294
1749.12	0.0041396
1758.76	0.00533418
1768.4	0.00586112
1778.05	0.00587966
1787.69	0.00648522
1797.33	0.00548325
1806.97	0.0053878
1816.62	0.00584285
1826.26	0.00579236
1835.9	0.0052264
1845.54	0.00549437
1855.18	0.00573118
1864.83	0.00582202
1874.47	0.00618093
1884.11	0.00625493
1893.75	0.00540808
1903.4	0.00507385
1913.04	0.00457719
1922.68	0.00563794
1932.32	0.0038896
1941.97	0.00325526
1951.61	-0.000414464
1961.25	0.000969205
1970.89	0.000652109
1980.54	0.00529572
1990.18	0.00194347
1999.82	-0.00172739
2009.46	-0.00436978
2019.11	-0.00266603
2028.75	-0.00323442
2038.39	0.000252704
2048.03	0.00393437
2057.67	0.00568406
2067.32	0.00424604
2076.96	0.00495313
2086.6	0.00456168
2096.24	0.00216282
2105.89	0.00489204
2115.53	0.00269908
2125.17	0.00373718
2134.81	0.000544961
2144.45	-0.00163615
2154.1	-0.00840432
2163.74	-0.00270711
2173.38	-0.00517432
2183.02	-0.00418646
2192.67	-6.43674e-05
2202.31	0.000854512
2211.95	-0.000205193
2221.59	0.00283721
2231.24	0.00135808
2240.88	0.00231339
2250.52	0.0033283
2260.16	0.00638692
2269.8	0.00469193
2279.45	0.00621277
2289.09	0.00867464
2298.73	0.00825965
2308.38	0.00945526
2318.02	0.0101837
2327.66	0.0118328
2337.3	0.010055
2346.94	0.00944989
2356.59	0.0107559
2366.23	0.00968384
2375.87	0.00933224
2385.51	0.00774763
2395.16	0.00881947
2404.8	0.00982271
2414.44	0.00982624
2424.08	0.00954066
2433.72	0.0114549
2443.37	0.0101157
2453.01	0.0114392
2462.65	0.0103357
2472.29	0.0117177
2481.94	0.0116066
2491.58	0.0113373
2501.22	0.0129949
2510.86	0.0136162
2520.51	0.0115327
2530.15	0.0144981
2539.79	0.0121623
2549.43	0.0114797
2559.07	0.0132584
2568.72	0.0132099
2578.36	0.0129069
2588	0.0140303
2597.64	0.0125953
2607.29	0.012859
2616.93	0.0161042
2626.57	0.0152952
2636.21	0.0143356
2645.86	0.0138455
2655.5	0.0148302
2665.14	0.014518
2674.78	0.0144935
2684.43	0.0154302
2694.07	0.0140539
2703.71	0.0147987
2713.35	0.014804
2722.99	0.0149003
2732.64	0.0143389
2742.28	0.0154772
2751.92	0.0153237
2761.56	0.0159609
2771.21	0.0165774
2780.85	0.0159916
2790.49	0.0146256
2800.13	0.0148966
2809.78	0.0159367
2819.42	0.0159832
2829.06	0.0164246
2838.7	0.0161847
2848.34	0.0132191
2857.99	0.0113507
2867.63	0.0156042
2877.27	0.0164076
2886.91	0.0161132
2896.56	0.0156104
2906.2	0.0153148
2915.84	0.012397
2925.48	0.0131482
2935.13	0.0137321
2944.77	0.0162977
2954.41	0.0164471
2964.05	0.0177244
2973.7	0.01704
2983.34	0.0180217
2992.98	0.0186862
3002.62	0.0175914
3012.26	0.0178257
3021.91	0.0186971
3031.55	0.0164473
3041.19	0.0168217
3050.83	0.0173774
3060.48	0.0178827
3070.12	0.018365
3079.76	0.0172268
3089.4	0.0178083
3099.05	0.017623
3108.69	0.0192669
3118.33	0.0209995
3127.97	0.0193113
3137.61	0.0224479
3147.26	0.0198022
3156.9	0.0193684
3166.54	0.0213773
3176.18	0.0209042
3185.83	0.0238801
3195.47	0.0215054
3205.11	0.0227539
3214.75	0.0199147
3224.4	0.0195549
3234.04	0.0219184
3243.68	0.0243064
3253.32	0.0228224
3262.97	0.0253894
3272.61	0.022535
3282.25	0.0236622
3291.89	0.0256907
3301.53	0.0228615
3311.18	0.025539
3320.82	0.0225471
3330.46	0.0249575
3340.1	0.0216012
3349.75	0.0237681
3359.39	0.0241563
3369.03	0.0259204
3378.67	0.0252848
3388.32	0.0235541
3397.96	0.0245677
3407.6	0.0221284
3417.24	0.0243032
3426.89	0.0277394
3436.53	0.0254363
3446.17	0.024083
3455.81	0.0231248
3465.45	0.0267751
3475.1	0.025498
3484.74	0.0229231
3494.38	0.025762
3504.02	0.0247194
3513.67	0.0249825
3523.31	0.0256943
3532.95	0.0224347
3542.59	0.0246695
3552.24	0.0262501
3561.88	0.0230514
3571.52	0.0250194
3581.16	0.0232066
3590.8	0.019912
3600.45	0.0260948
3610.09	0.0259698
3619.73	0.0257971
3629.37	0.025505
3639.02	0.0220915
3648.66	0.0183372
3658.3	0.0218689
3667.94	0.0252985
3677.59	0.0249133
3687.23	0.0229013
3696.87	0.0253753
3706.51	0.024215
3716.16	0.0232307
3725.8	0.0235178
3735.44	0.0236447
3745.08	0.0251434
3754.72	0.0288093
3764.37	0.0279812
3774.01	0.0252102
3783.65	0.0241284
3793.29	0.0248706
3802.94	0.0280311
3812.58	0.0248238
3822.22	0.0249591
3831.86	0.0238813
3841.51	0.0279666
3851.15	0.026764
3860.79	0.0271786
3870.43	0.0253502
3880.07	0.0224585
3889.72	0.0263206
3899.36	0.0283598
3909	0.0292441
3918.64	0.0286369
3928.29	0.0238834
3937.93	0.0204625
3947.57	0.0261094
3957.21	0.0266722
3966.86	0.0301136
3976.5	0.0271555
3986.14	0.0356958
3995.78	0.0239483
