Measurement: Infrared, Infrared Data Processed
Mineral: Bastnasite-(Ce)
Rruff sample: R050409
Ideal chemistry: CeCO_3_F
Locality: Machni, near Warsak Dam, Zagi Mountain, North-West Frontier Province, Pakistan
Source: G.R. Rossman
Description: Yellowish brown fragment
Measured chemistry: (Ce_0.54_(La,Pr)_0.25_Nd_0.21_)_Î£=1_CO_3_F_1.00_
x	intensity
399.193	0.0565969
408.835	0.0377879
418.477	0.0274138
428.12	0.0255511
437.762	0.021159
447.404	0.0150703
457.047	0.0136963
466.689	0.0138852
476.331	0.0126871
485.974	0.0114267
495.616	0.0114041
505.258	0.012201
514.901	0.0110022
524.543	0.0115544
534.185	0.0114279
543.828	0.0113721
553.47	0.011976
563.112	0.0112893
572.755	0.0113668
582.397	0.0132085
592.039	0.0144666
601.682	0.0153649
611.324	0.0154355
620.966	0.0153558
630.609	0.0148269
640.251	0.0147747
649.893	0.0157924
659.536	0.0191189
669.178	0.0219228
678.82	0.0204902
688.463	0.0215242
698.105	0.0218648
707.747	0.0239881
717.39	0.0360924
727.032	0.069696
736.674	0.0314093
746.317	0.0371321
755.959	0.0429822
765.601	0.0341418
775.244	0.028204
784.886	0.0283631
794.528	0.0282907
804.171	0.0287444
813.813	0.0313146
823.455	0.0359533
833.098	0.0480581
842.74	0.0824794
852.382	0.111828
862.025	0.393125
871.667	0.180856
881.309	0.0459578
890.952	0.0162858
900.594	0.0166307
910.236	0.0176118
919.879	0.0195761
929.521	0.0206668
939.163	0.0223442
948.806	0.0242466
958.448	0.0254397
968.09	0.0274604
977.733	0.0294041
987.375	0.0305521
997.017	0.0322098
1006.66	0.0336749
1016.3	0.0354403
1025.94	0.036301
1035.59	0.0360824
1045.23	0.0312464
1054.87	0.0355412
1064.51	0.0423168
1074.16	0.0475103
1083.8	0.0682684
1093.44	0.0715986
1103.08	0.0471881
1112.72	0.0517686
1122.37	0.0560246
1132.01	0.0589323
1141.65	0.061416
1151.3	0.0634925
1160.94	0.0669682
1170.58	0.0724638
1180.22	0.0770662
1189.86	0.0796609
1199.51	0.0849419
1209.15	0.0904647
1218.79	0.0969866
1228.43	0.10467
1238.08	0.113326
1247.72	0.12448
1257.36	0.136498
1267	0.150038
1276.64	0.166314
1286.29	0.181158
1295.93	0.200348
1305.57	0.225453
1315.21	0.2563
1324.86	0.288376
1334.5	0.324672
1344.14	0.367755
1353.78	0.417137
1363.43	0.473919
1373.07	0.539863
1382.71	0.609937
1392.35	0.672439
1401.99	0.729445
1411.64	0.769617
1421.28	0.766303
1430.92	0.729802
1440.57	0.657894
1450.21	0.512907
1459.85	0.397926
1469.49	0.31926
1479.13	0.246973
1488.78	0.188651
1498.42	0.144512
1508.06	0.119886
1517.7	0.101186
1527.35	0.0830995
1536.99	0.0625995
1546.63	0.0470643
1556.27	0.0381627
1565.91	0.0315799
1575.56	0.0264947
1585.2	0.0221553
1594.84	0.0193873
1604.48	0.0167013
1614.13	0.014757
1623.77	0.0134763
1633.41	0.0129197
1643.05	0.0124612
1652.7	0.0125079
1662.34	0.0123387
1671.98	0.0125935
1681.62	0.0119553
1691.27	0.0102325
1700.91	0.0100115
1710.55	0.0083665
1720.19	0.00868515
1729.84	0.0086068
1739.48	0.00824818
1749.12	0.0100244
1758.76	0.0164256
1768.4	0.0153506
1778.05	0.0109606
1787.69	0.00934739
1797.33	0.00963092
1806.97	0.0105377
1816.62	0.0149845
1826.26	0.021025
1835.9	0.0118493
1845.54	0.00957396
1855.18	0.0102095
1864.83	0.0104945
1874.47	0.0107633
1884.11	0.0105175
1893.75	0.0101986
1903.4	0.0105652
1913.04	0.0103978
1922.68	0.0111362
1932.32	0.00898405
1941.97	0.0103233
1951.61	0.0105642
1961.25	0.0138942
1970.89	0.0125632
1980.54	0.0173708
1990.18	0.0121333
1999.82	0.0150892
2009.46	0.0141262
2019.11	0.013487
2028.75	0.0160173
2038.39	0.0155245
2048.03	0.0164366
2057.67	0.0159146
2067.32	0.0179394
2076.96	0.0174902
2086.6	0.0175323
2096.24	0.0170621
2105.89	0.0173409
2115.53	0.0158208
2125.17	0.0146261
2134.81	0.0139655
2144.45	0.0125968
2154.1	0.0132178
2163.74	0.0180962
2173.38	0.0197324
2183.02	0.0167593
2192.67	0.0139469
2202.31	0.0173936
2211.95	0.0206027
2221.59	0.0186729
2231.24	0.0209308
2240.88	0.0216511
2250.52	0.0205273
2260.16	0.0223256
2269.8	0.0230944
2279.45	0.0237048
2289.09	0.0244937
2298.73	0.0221931
2308.38	0.0241359
2318.02	0.0241295
2327.66	0.0235044
2337.3	0.0224778
2346.94	0.0234975
2356.59	0.0216166
2366.23	0.0206755
2375.87	0.0225783
2385.51	0.021712
2395.16	0.023306
2404.8	0.0232217
2414.44	0.0245231
2424.08	0.022991
2433.72	0.0255104
2443.37	0.0253415
2453.01	0.0252164
2462.65	0.0260112
2472.29	0.026509
2481.94	0.0280074
2491.58	0.032331
2501.22	0.0402134
2510.86	0.0374842
2520.51	0.0336171
2530.15	0.0292728
2539.79	0.0291474
2549.43	0.0271657
2559.07	0.0257232
2568.72	0.0249883
2578.36	0.0253109
2588	0.0268621
2597.64	0.0255801
2607.29	0.0249767
2616.93	0.0256862
2626.57	0.0250022
2636.21	0.0249754
2645.86	0.0237977
2655.5	0.0247083
2665.14	0.0232654
2674.78	0.0232457
2684.43	0.0230361
2694.07	0.022553
2703.71	0.0221731
2713.35	0.0228766
2722.99	0.0228289
2732.64	0.0229736
2742.28	0.0224634
2751.92	0.021735
2761.56	0.0230814
2771.21	0.0222652
2780.85	0.0220305
2790.49	0.0215672
2800.13	0.0215168
2809.78	0.0215499
2819.42	0.0219451
2829.06	0.0224306
2838.7	0.0230646
2848.34	0.0260307
2857.99	0.0263131
2867.63	0.0258498
2877.27	0.0229416
2886.91	0.0228457
2896.56	0.0226694
2906.2	0.0255251
2915.84	0.0270555
2925.48	0.0264012
2935.13	0.0263594
2944.77	0.0256624
2954.41	0.0266909
2964.05	0.0239718
2973.7	0.0173851
2983.34	0.0240517
2992.98	0.0276825
3002.62	0.0282151
3012.26	0.0294823
3021.91	0.0289491
3031.55	0.0294067
3041.19	0.0299074
3050.83	0.0301714
3060.48	0.0321688
3070.12	0.0318221
3079.76	0.0320811
3089.4	0.0339891
3099.05	0.0324047
3108.69	0.0353265
3118.33	0.0341863
3127.97	0.0348363
3137.61	0.0336415
3147.26	0.0328509
3156.9	0.0337281
3166.54	0.0321651
3176.18	0.0348315
3185.83	0.0340308
3195.47	0.0346007
3205.11	0.0329801
3214.75	0.0320963
3224.4	0.0316603
3234.04	0.031612
3243.68	0.0307544
3253.32	0.0305632
3262.97	0.0307461
3272.61	0.0296912
3282.25	0.0297257
3291.89	0.0306627
3301.53	0.0320406
3311.18	0.0293981
3320.82	0.0279729
3330.46	0.0297901
3340.1	0.0296504
3349.75	0.0337781
3359.39	0.0290385
3369.03	0.0317815
3378.67	0.032655
3388.32	0.0327951
3397.96	0.0294463
3407.6	0.031828
3417.24	0.0323453
3426.89	0.036739
3436.53	0.0353022
3446.17	0.0364128
3455.81	0.0389626
3465.45	0.0395727
3475.1	0.0391209
3484.74	0.0424514
3494.38	0.0417215
3504.02	0.0406974
3513.67	0.0394566
3523.31	0.0421974
3532.95	0.0432375
3542.59	0.0389138
3552.24	0.0446818
3561.88	0.0392302
3571.52	0.0442665
3581.16	0.0503187
3590.8	0.0443431
3600.45	0.0444667
3610.09	0.0400634
3619.73	0.0410109
3629.37	0.0415173
3639.02	0.0378393
3648.66	0.041376
3658.3	0.0418838
3667.94	0.048123
3677.59	0.043512
3687.23	0.0396443
3696.87	0.0433332
3706.51	0.0494101
3716.16	0.0435364
3725.8	0.0379357
3735.44	0.047877
3745.08	0.0446304
3754.72	0.0368254
3764.37	0.0424714
3774.01	0.0454302
3783.65	0.0446233
3793.29	0.0480234
3802.94	0.0461238
3812.58	0.0444109
3822.22	0.0475361
3831.86	0.045824
3841.51	0.0465378
3851.15	0.0438522
3860.79	0.0464432
3870.43	0.043938
3880.07	0.0449654
3889.72	0.0501038
3899.36	0.0460259
3909	0.048603
3918.64	0.0469848
3928.29	0.0528696
3937.93	0.049956
3947.57	0.0485728
3957.21	0.0475266
3966.86	0.0498331
3976.5	0.0514256
3986.14	0.0606482
3995.78	0.0478592
