Measurement: Infrared, Infrared Data Processed
Mineral: Baumhauerite
Rruff sample: R050429
Ideal chemistry: Pb^2+^_12_As^3+^_16_S^2-^_36_
Locality: Binntal, Valais, Switzerland
Source: University of Arizona Mineral Museum
Description: Lead gray metallic with iridescent tarnish and conchoidal fracture
x	intensity
399.193	0.108022
408.835	0.153788
418.477	0.17871
428.12	0.200758
437.762	0.215953
447.404	0.238886
457.047	0.252963
466.689	0.265432
476.331	0.276035
485.974	0.286438
495.616	0.297056
505.258	0.304505
514.901	0.311622
524.543	0.319692
534.185	0.32955
543.828	0.336749
553.47	0.344956
563.112	0.350448
572.755	0.360221
582.397	0.365137
592.039	0.371573
601.682	0.380947
611.324	0.390529
620.966	0.388664
630.609	0.395852
640.251	0.398055
649.893	0.398564
659.536	0.4019
669.178	0.405265
678.82	0.411419
688.463	0.414693
698.105	0.42022
707.747	0.424307
717.39	0.429327
727.032	0.432517
736.674	0.437135
746.317	0.441509
755.959	0.4469
765.601	0.450256
775.244	0.452941
784.886	0.458194
794.528	0.462867
804.171	0.466537
813.813	0.469841
823.455	0.471692
833.098	0.475748
842.74	0.47755
852.382	0.477208
862.025	0.481956
871.667	0.486817
881.309	0.490127
890.952	0.492974
900.594	0.496502
910.236	0.500221
919.879	0.504104
929.521	0.508886
939.163	0.513249
948.806	0.517815
958.448	0.522104
968.09	0.526941
977.733	0.531049
987.375	0.534383
997.017	0.536994
1006.66	0.541614
1016.3	0.544663
1025.94	0.548832
1035.59	0.554714
1045.23	0.559385
1054.87	0.566429
1064.51	0.574423
1074.16	0.581613
1083.8	0.58461
1093.44	0.584741
1103.08	0.586874
1112.72	0.590095
1122.37	0.59255
1132.01	0.593507
1141.65	0.598234
1151.3	0.599478
1160.94	0.60173
1170.58	0.604996
1180.22	0.606194
1189.86	0.607211
1199.51	0.607074
1209.15	0.605227
1218.79	0.606528
1228.43	0.608404
1238.08	0.610572
1247.72	0.612503
1257.36	0.613546
1267	0.615729
1276.64	0.618151
1286.29	0.619745
1295.93	0.621365
1305.57	0.622751
1315.21	0.625705
1324.86	0.628334
1334.5	0.632265
1344.14	0.635352
1353.78	0.63965
1363.43	0.644176
1373.07	0.647667
1382.71	0.650411
1392.35	0.652618
1401.99	0.655076
1411.64	0.657809
1421.28	0.660791
1430.92	0.666057
1440.57	0.66985
1450.21	0.673568
1459.85	0.675175
1469.49	0.674053
1479.13	0.676132
1488.78	0.678153
1498.42	0.680707
1508.06	0.683007
1517.7	0.684646
1527.35	0.686438
1536.99	0.690036
1546.63	0.692092
1556.27	0.694309
1565.91	0.697876
1575.56	0.700165
1585.2	0.70408
1594.84	0.705983
1604.48	0.708731
1614.13	0.710565
1623.77	0.713984
1633.41	0.716702
1643.05	0.718728
1652.7	0.722169
1662.34	0.724071
1671.98	0.726544
1681.62	0.728017
1691.27	0.732177
1700.91	0.734768
1710.55	0.738763
1720.19	0.745919
1729.84	0.750677
1739.48	0.747936
1749.12	0.744092
1758.76	0.743213
1768.4	0.746128
1778.05	0.748125
1787.69	0.749806
1797.33	0.752084
1806.97	0.752542
1816.62	0.753818
1826.26	0.756117
1835.9	0.758341
1845.54	0.759471
1855.18	0.758063
1864.83	0.76262
1874.47	0.762447
1884.11	0.766426
1893.75	0.766766
1903.4	0.765778
1913.04	0.767124
1922.68	0.769389
1932.32	0.769423
1941.97	0.765314
1951.61	0.767699
1961.25	0.755245
1970.89	0.753935
1980.54	0.753792
1990.18	0.767727
1999.82	0.771156
2009.46	0.765906
2019.11	0.761124
2028.75	0.758854
2038.39	0.770793
2048.03	0.779206
2057.67	0.79324
2067.32	0.802351
2076.96	0.801962
2086.6	0.808775
2096.24	0.810152
2105.89	0.814383
2115.53	0.818195
2125.17	0.815123
2134.81	0.806485
2144.45	0.79965
2154.1	0.790993
2163.74	0.797915
2173.38	0.803203
2183.02	0.803746
2192.67	0.816262
2202.31	0.820867
2211.95	0.830875
2221.59	0.829716
2231.24	0.831217
2240.88	0.837522
2250.52	0.842256
2260.16	0.851584
2269.8	0.855445
2279.45	0.861708
2289.09	0.865671
2298.73	0.871056
2308.38	0.876729
2318.02	0.878051
2327.66	0.883896
2337.3	0.886884
2346.94	0.888489
2356.59	0.890871
2366.23	0.893182
2375.87	0.891915
2385.51	0.892533
2395.16	0.893517
2404.8	0.896602
2414.44	0.896546
2424.08	0.900754
2433.72	0.901384
2443.37	0.904246
2453.01	0.905621
2462.65	0.905872
2472.29	0.90934
2481.94	0.913327
2491.58	0.915325
2501.22	0.916004
2510.86	0.918374
2520.51	0.920858
2530.15	0.922489
2539.79	0.923056
2549.43	0.928788
2559.07	0.931847
2568.72	0.933502
2578.36	0.933397
2588	0.935898
2597.64	0.941554
2607.29	0.942284
2616.93	0.948759
2626.57	0.951502
2636.21	0.953765
2645.86	0.955107
2655.5	0.958765
2665.14	0.961772
2674.78	0.963141
2684.43	0.967945
2694.07	0.968734
2703.71	0.970403
2713.35	0.972284
2722.99	0.974306
2732.64	0.976913
2742.28	0.979423
2751.92	0.981941
2761.56	0.983197
2771.21	0.986267
2780.85	0.988441
2790.49	0.991285
2800.13	0.990672
2809.78	0.994089
2819.42	0.994368
2829.06	1.00086
2838.7	1.00317
2848.34	1.00647
2857.99	1.00398
2867.63	1.00746
2877.27	1.00627
2886.91	1.01332
2896.56	1.0158
2906.2	1.01821
2915.84	1.02002
2925.48	1.00696
2935.13	1.01127
2944.77	1.01826
2954.41	1.02523
2964.05	1.02596
2973.7	1.02453
2983.34	1.02562
2992.98	1.02853
3002.62	1.031
3012.26	1.02969
3021.91	1.03179
3031.55	1.03258
3041.19	1.0379
3050.83	1.03785
3060.48	1.04025
3070.12	1.04492
3079.76	1.04589
3089.4	1.0497
3099.05	1.05401
3108.69	1.0521
3118.33	1.04935
3127.97	1.05651
3137.61	1.06245
3147.26	1.06091
3156.9	1.06445
3166.54	1.06639
3176.18	1.06584
3185.83	1.06645
3195.47	1.07493
3205.11	1.07422
3214.75	1.07591
3224.4	1.08017
3234.04	1.0815
3243.68	1.08451
3253.32	1.0831
3262.97	1.09027
3272.61	1.0921
3282.25	1.09142
3291.89	1.09317
3301.53	1.10379
3311.18	1.09959
3320.82	1.10102
3330.46	1.10349
3340.1	1.10447
3349.75	1.10745
3359.39	1.11094
3369.03	1.11023
3378.67	1.11505
3388.32	1.11831
3397.96	1.1207
3407.6	1.12452
3417.24	1.12183
3426.89	1.12222
3436.53	1.12681
3446.17	1.13096
3455.81	1.13185
3465.45	1.13254
3475.1	1.13489
3484.74	1.14037
3494.38	1.14479
3504.02	1.13768
3513.67	1.14407
3523.31	1.14235
3532.95	1.14713
3542.59	1.14819
3552.24	1.15236
3561.88	1.15053
3571.52	1.15532
3581.16	1.15741
3590.8	1.16183
3600.45	1.15675
3610.09	1.16393
3619.73	1.16505
3629.37	1.17148
3639.02	1.17214
3648.66	1.17137
3658.3	1.18164
3667.94	1.18164
3677.59	1.1804
3687.23	1.18231
3696.87	1.1879
3706.51	1.18263
3716.16	1.1942
3725.8	1.19114
3735.44	1.195
3745.08	1.20008
3754.72	1.20262
3764.37	1.20519
3774.01	1.20726
3783.65	1.20768
3793.29	1.21498
3802.94	1.21488
3812.58	1.21934
3822.22	1.22652
3831.86	1.2285
3841.51	1.22125
3851.15	1.2186
3860.79	1.22685
3870.43	1.23594
3880.07	1.23064
3889.72	1.24028
3899.36	1.23833
3909	1.2405
3918.64	1.24086
3928.29	1.25047
3937.93	1.25512
3947.57	1.25032
3957.21	1.25054
3966.86	1.26181
3976.5	1.25201
3986.14	1.25936
3995.78	1.26522
