Measurement: Infrared, Infrared Data Processed
Mineral: Benstonite
Rruff sample: R050484
Ideal chemistry: Ba_6_Ca_6_Mg(CO_3_)_13_
Locality: Minerva #1 mine, Cave-in-Rock, Hardin County, Illinois, USA
Source: California Institute of Technology
Description: Colorless fragment
Measured chemistry: lighter phase: (Ba_5.77_Sr_0.23_)_Σ=6_Ca_6.00_(Mg_0.90_Ca_0.10_)_Σ=1_(CO_3_)_13_ ; darker phase: (Ba_5.75_Sr_0.25_)_Σ=6_Ca_6.00_(Mg_0.86_Ca_0.14_)_Σ=1_(CO_3_)_13_ ; C estimated by difference
x	intensity
50.1401	0.00724891
52.0686	-0.000705479
53.9971	0.00111292
55.9255	0.0042385
57.854	0.0110539
59.7825	0.010009
61.7109	0.00675821
63.6394	0.0100569
65.5679	0.0121892
67.4963	0.0110016
69.4248	0.00939717
71.3533	0.0102557
73.2817	0.0108503
75.2102	0.0123944
77.1387	0.0134471
79.0671	0.0135083
80.9956	0.0133388
82.9241	0.0122351
84.8525	0.0112829
86.781	0.0106823
88.7095	0.0113789
90.6379	0.0125387
92.5664	0.0136117
94.4948	0.0138664
96.4233	0.0147891
98.3518	0.01551
100.28	0.015706
102.209	0.0150679
104.137	0.0159363
106.066	0.0175854
107.994	0.0171181
109.923	0.0160181
111.851	0.0173273
113.779	0.0195731
115.708	0.0204508
117.636	0.0195285
119.565	0.019791
121.493	0.0197045
123.422	0.0196471
125.35	0.018486
127.279	0.0175129
129.207	0.0174394
131.136	0.0181865
133.064	0.0191454
134.993	0.0193686
136.921	0.0196893
138.85	0.0206217
140.778	0.0214637
142.707	0.0219509
144.635	0.0219977
146.563	0.0218368
148.492	0.0215014
150.42	0.021101
152.349	0.0223303
154.277	0.0232938
156.206	0.0231888
158.134	0.0222237
160.063	0.0222711
161.991	0.0230232
163.92	0.0236976
165.848	0.0243812
167.777	0.0248345
169.705	0.0254025
171.633	0.0260895
173.562	0.026549
175.49	0.0262141
177.419	0.0270917
179.347	0.0281961
181.276	0.0283863
183.204	0.0285671
185.133	0.0291786
187.061	0.0287029
188.99	0.0287775
190.918	0.029051
192.847	0.0286479
194.775	0.028011
196.704	0.0270226
198.632	0.0266931
200.56	0.0267498
202.489	0.0261591
204.417	0.0255797
206.346	0.0251214
208.274	0.025191
210.203	0.0269969
212.131	0.0278492
214.06	0.0275335
215.988	0.0276005
217.917	0.0273469
219.845	0.0268662
221.774	0.0266043
223.702	0.0267093
225.631	0.0275307
227.559	0.0277475
229.488	0.0278322
231.416	0.0279183
233.344	0.0275334
235.273	0.0280311
237.201	0.0290449
239.13	0.0304035
241.058	0.0316053
242.987	0.032711
244.915	0.0339889
246.844	0.0353337
248.772	0.0359206
250.701	0.0362859
252.629	0.0369843
254.558	0.0379044
256.486	0.0384416
258.414	0.0390034
260.343	0.0392361
262.271	0.0389044
264.2	0.038873
266.128	0.0385248
268.057	0.0376273
269.985	0.0372436
271.914	0.0368082
273.842	0.0358342
275.771	0.0356386
277.699	0.0357962
279.628	0.035721
281.556	0.0358861
283.485	0.0363726
285.413	0.0367657
287.341	0.0367632
289.27	0.0374255
291.198	0.0383501
293.127	0.0390265
295.055	0.0387021
296.984	0.0375809
298.912	0.0368495
300.841	0.0360314
302.769	0.0345758
304.698	0.0335173
306.626	0.0322736
308.555	0.0310782
310.483	0.0303792
312.411	0.0295909
314.34	0.0288335
316.269	0.0286618
318.197	0.028872
320.125	0.029143
322.054	0.0299269
323.982	0.0313688
325.911	0.0326929
327.839	0.0340517
329.768	0.035131
331.696	0.0362096
333.625	0.0369936
335.553	0.0375087
337.482	0.0376305
339.41	0.0376344
341.339	0.037108
343.267	0.0362654
345.195	0.0358195
347.124	0.0351172
349.052	0.0336999
350.981	0.0322246
352.909	0.0309731
354.838	0.0300357
356.766	0.0287819
358.695	0.0278065
360.623	0.0265942
362.552	0.0251828
364.48	0.0238922
366.409	0.0231087
368.337	0.0223459
370.265	0.0216515
372.194	0.0209843
374.122	0.0205247
376.051	0.0202003
377.979	0.019943
379.908	0.0196291
381.836	0.0192358
383.765	0.0190837
385.693	0.0189938
387.622	0.0184587
389.55	0.01804
391.479	0.0175031
393.407	0.0172377
395.336	0.0170588
397.264	0.0164436
399.192	0.0159771
401.121	0.015588
403.049	0.0153267
404.978	0.0154193
406.906	0.0154242
408.835	0.0152088
410.763	0.0151475
412.692	0.0151621
414.62	0.0148555
416.549	0.0147337
418.477	0.0148125
420.406	0.0150001
422.334	0.0151543
424.262	0.0154182
426.191	0.0155791
428.12	0.015734
430.048	0.016183
431.976	0.016403
433.905	0.0164826
435.833	0.016936
437.762	0.0174422
439.69	0.0173882
441.619	0.0171749
443.547	0.0168823
445.476	0.0165332
447.404	0.0165496
449.333	0.0163633
451.261	0.0163088
453.19	0.0164507
455.118	0.0166285
457.046	0.0166237
458.975	0.0164851
460.903	0.0161802
462.832	0.0161233
464.76	0.0159939
466.689	0.0159362
468.617	0.0158651
470.546	0.0157712
472.474	0.0158238
474.403	0.0158201
476.331	0.0155802
478.26	0.0151891
480.188	0.0150656
482.116	0.0154456
484.045	0.0153589
485.974	0.0155812
487.902	0.0161161
489.83	0.0163791
491.759	0.0162202
493.687	0.0163281
495.616	0.0165815
497.544	0.0167557
499.473	0.0167238
501.401	0.0173284
503.33	0.0180245
505.258	0.0184909
507.187	0.0181514
509.115	0.0180349
511.043	0.0180726
512.972	0.0178011
514.9	0.0175369
516.829	0.0172829
518.757	0.0171857
520.686	0.0176393
522.614	0.0181156
524.543	0.0182835
526.471	0.0181778
528.4	0.017908
530.328	0.0179566
532.257	0.0180765
534.185	0.0179228
536.114	0.0176184
538.042	0.0174889
539.971	0.017492
541.899	0.0175168
543.827	0.0177413
545.756	0.0176032
547.684	0.0171419
549.613	0.0170647
551.541	0.0170159
553.47	0.0175962
555.398	0.0181796
557.327	0.0175345
559.255	0.0170952
561.184	0.0170724
563.112	0.0175881
565.041	0.0183343
566.969	0.0181952
568.898	0.0175642
570.826	0.017925
572.755	0.0184015
574.683	0.0186537
576.611	0.0187952
578.54	0.0186467
580.468	0.0187752
582.397	0.0191121
584.325	0.0192643
586.254	0.0191765
588.182	0.0186619
590.111	0.018534
592.039	0.0188396
593.968	0.0189193
595.896	0.0188657
597.824	0.0190246
599.753	0.0189128
601.682	0.0185375
603.61	0.0188096
605.538	0.0193171
607.467	0.0195099
609.395	0.0188191
611.324	0.0181187
613.252	0.0182939
615.181	0.01887
617.109	0.0191686
619.038	0.0189004
620.966	0.0193687
622.894	0.0197281
624.823	0.0205169
626.751	0.0209666
628.68	0.0214482
630.608	0.0226455
632.537	0.0235551
634.465	0.0236783
636.394	0.0232595
638.322	0.0230966
640.251	0.0234964
642.179	0.0234755
644.108	0.0233039
646.036	0.0235834
647.965	0.0238741
649.893	0.0239067
651.822	0.0236549
653.75	0.0239312
655.678	0.024649
657.607	0.0247273
659.535	0.0246876
661.464	0.0250004
663.392	0.0254129
665.321	0.0252767
667.249	0.025864
669.178	0.026508
671.106	0.0265402
673.035	0.0270758
674.963	0.0278484
676.892	0.0282362
678.82	0.0287754
680.749	0.0311847
682.677	0.0352375
684.606	0.0355447
686.534	0.0324938
688.462	0.0312604
690.391	0.0316634
692.319	0.0326078
694.248	0.0332295
696.176	0.0328046
698.105	0.0323037
700.033	0.0344089
