Measurement: Infrared, Infrared Data Processed
Mineral: Benstonite
Rruff sample: R050484
Ideal chemistry: Ba_6_Ca_6_Mg(CO_3_)_13_
Locality: Minerva #1 mine, Cave-in-Rock, Hardin County, Illinois, USA
Source: California Institute of Technology
Description: Colorless fragment
Measured chemistry: lighter phase: (Ba_5.77_Sr_0.23_)_Σ=6_Ca_6.00_(Mg_0.90_Ca_0.10_)_Σ=1_(CO_3_)_13_ ; darker phase: (Ba_5.75_Sr_0.25_)_Σ=6_Ca_6.00_(Mg_0.86_Ca_0.14_)_Σ=1_(CO_3_)_13_ ; C estimated by difference
x	intensity
399.193	0.0188924
408.835	0.0161185
418.477	0.0140649
428.12	0.0130526
437.762	0.0112653
447.404	0.0105484
457.047	0.0105992
466.689	0.00986057
476.331	0.00810501
485.974	0.00810959
495.616	0.00735434
505.258	0.00718877
514.901	0.00699103
524.543	0.00670446
534.185	0.00722228
543.828	0.00668135
553.47	0.00786762
563.112	0.00793509
572.755	0.00793627
582.397	0.00828581
592.039	0.00841815
601.682	0.00900215
611.324	0.00965927
620.966	0.00968572
630.609	0.00959694
640.251	0.00992544
649.893	0.0109053
659.536	0.01124
669.178	0.0128268
678.82	0.0207275
688.463	0.0323248
698.105	0.022812
707.747	0.0250672
717.39	0.0303575
727.032	0.0111387
736.674	0.00955034
746.317	0.00935392
755.959	0.00979235
765.601	0.00977403
775.244	0.01026
784.886	0.0105538
794.528	0.0109783
804.171	0.01154
813.813	0.0119863
823.455	0.013117
833.098	0.0150678
842.74	0.0245932
852.382	0.0351244
862.025	0.0988479
871.667	0.233036
881.309	0.0495485
890.952	0.0130473
900.594	0.0114588
910.236	0.0115301
919.879	0.0115292
929.521	0.0121657
939.163	0.0125685
948.806	0.0127903
958.448	0.0132157
968.09	0.0135806
977.733	0.0142946
987.375	0.0150487
997.017	0.0158999
1006.66	0.0164575
1016.3	0.0173331
1025.94	0.0179807
1035.59	0.0188714
1045.23	0.0200672
1054.87	0.0223277
1064.51	0.0253948
1074.16	0.0315566
1083.8	0.0323097
1093.44	0.0305012
1103.08	0.0246571
1112.72	0.024924
1122.37	0.026532
1132.01	0.0282835
1141.65	0.0299763
1151.3	0.0321342
1160.94	0.0342411
1170.58	0.0363969
1180.22	0.0383948
1189.86	0.0411497
1199.51	0.0441229
1209.15	0.047983
1218.79	0.052085
1228.43	0.0570606
1238.08	0.0626267
1247.72	0.0690358
1257.36	0.076363
1267	0.0854878
1276.64	0.0961892
1286.29	0.108918
1295.93	0.12462
1305.57	0.143555
1315.21	0.166899
1324.86	0.194927
1334.5	0.229734
1344.14	0.272207
1353.78	0.322347
1363.43	0.379295
1373.07	0.434365
1382.71	0.489858
1392.35	0.535281
1401.99	0.527955
1411.64	0.454355
1421.28	0.40221
1430.92	0.33998
1440.57	0.413875
1450.21	0.365333
1459.85	0.303644
1469.49	0.265497
1479.13	0.212966
1488.78	0.216068
1498.42	0.228636
1508.06	0.177993
1517.7	0.140771
1527.35	0.109286
1536.99	0.0732318
1546.63	0.0476869
1556.27	0.0326509
1565.91	0.0230517
1575.56	0.0177057
1585.2	0.0138734
1594.84	0.0113694
1604.48	0.00949709
1614.13	0.00811587
1623.77	0.00676964
1633.41	0.00591321
1643.05	0.00534802
1652.7	0.00626094
1662.34	0.00448613
1671.98	0.00382191
1681.62	0.00320238
1691.27	0.00240113
1700.91	0.00271614
1710.55	0.00125618
1720.19	0.000878383
1729.84	0.000377982
1739.48	-0.000234311
1749.12	0.000689634
1758.76	0.00317301
1768.4	0.0043551
1778.05	0.00620439
1787.69	0.00458622
1797.33	0.00306674
1806.97	0.00151947
1816.62	0.000319743
1826.26	0.000218718
1835.9	-0.000324831
1845.54	0.00020072
1855.18	-0.000123606
1864.83	3.33669e-05
1874.47	0.000810799
1884.11	9.92615e-06
1893.75	0.000225609
1903.4	0.000459572
1913.04	0.000970193
1922.68	0.000145326
1932.32	0.000626405
1941.97	0.000925341
1951.61	-0.000446392
1961.25	3.30126e-05
1970.89	4.18607e-05
1980.54	0.00286488
1990.18	0.000838604
1999.82	6.89129e-06
2009.46	-0.00020791
2019.11	0.00161863
2028.75	0.00177668
2038.39	0.00203936
2048.03	0.00170742
2057.67	0.00211216
2067.32	0.00108032
2076.96	0.00236024
2086.6	0.00210547
2096.24	0.00196344
2105.89	0.00286196
2115.53	0.00190712
2125.17	0.00105155
2134.81	0.000516297
2144.45	0.000349156
2154.1	-0.00238762
2163.74	0.00189189
2173.38	0.000446946
2183.02	0.00309269
2192.67	0.00205034
2202.31	0.00249559
2211.95	0.00258449
2221.59	0.00363746
2231.24	0.00238421
2240.88	0.00375512
2250.52	0.00300317
2260.16	0.00380871
2269.8	0.00428471
2279.45	0.00474002
2289.09	0.00543698
2298.73	0.00503378
2308.38	0.00523418
2318.02	0.00637864
2327.66	0.006095
2337.3	0.00625987
2346.94	0.00568355
2356.59	0.00614702
2366.23	0.0060026
2375.87	0.00521947
2385.51	0.00467462
2395.16	0.00482626
2404.8	0.00473939
2414.44	0.0052189
2424.08	0.00562549
2433.72	0.00557985
2443.37	0.00662166
2453.01	0.00715753
2462.65	0.00858366
2472.29	0.00941534
2481.94	0.00998057
2491.58	0.00995327
2501.22	0.00954758
2510.86	0.00914678
2520.51	0.00900953
2530.15	0.00894273
2539.79	0.00891073
2549.43	0.00788255
2559.07	0.00701894
2568.72	0.00666139
2578.36	0.00675567
2588	0.00683537
2597.64	0.0061965
2607.29	0.00602251
2616.93	0.00642901
2626.57	0.00595769
2636.21	0.00598404
2645.86	0.00594838
2655.5	0.00550176
2665.14	0.00531892
2674.78	0.00487091
2684.43	0.00491607
2694.07	0.00493131
2703.71	0.00461641
2713.35	0.00480032
2722.99	0.00455505
2732.64	0.00474498
2742.28	0.00482184
2751.92	0.00498749
2761.56	0.00503142
2771.21	0.0051768
2780.85	0.00519851
2790.49	0.00555998
2800.13	0.00581447
2809.78	0.00583019
2819.42	0.00665499
2829.06	0.00741094
2838.7	0.00798421
2848.34	0.00895903
2857.99	0.00895054
2867.63	0.00866113
2877.27	0.00939759
2886.91	0.00924107
2896.56	0.00941764
2906.2	0.0103615
2915.84	0.0111924
2925.48	0.0110884
2935.13	0.0106131
2944.77	0.0100062
2954.41	0.0100098
2964.05	0.0101344
2973.7	0.00938893
2983.34	0.00854056
2992.98	0.00855588
3002.62	0.00879407
3012.26	0.00937308
3021.91	0.00936426
3031.55	0.00994551
3041.19	0.0101303
3050.83	0.0102261
3060.48	0.0106935
3070.12	0.0114862
3079.76	0.0121022
3089.4	0.0124227
3099.05	0.0129526
3108.69	0.0134002
3118.33	0.0138168
3127.97	0.0140467
3137.61	0.0141117
3147.26	0.0146203
3156.9	0.0148199
3166.54	0.0150665
3176.18	0.014484
3185.83	0.0150962
3195.47	0.0150666
3205.11	0.0152334
3214.75	0.0155939
3224.4	0.0157515
3234.04	0.0155804
3243.68	0.0156857
3253.32	0.0158004
3262.97	0.0156554
3272.61	0.0155516
3282.25	0.0158536
3291.89	0.0155061
3301.53	0.0166259
3311.18	0.0160294
3320.82	0.0165946
3330.46	0.0160167
3340.1	0.0156872
3349.75	0.0152376
3359.39	0.0153557
3369.03	0.015624
3378.67	0.015711
3388.32	0.0166083
3397.96	0.0152818
3407.6	0.015094
3417.24	0.0156761
3426.89	0.0154518
3436.53	0.0146453
3446.17	0.0151578
3455.81	0.0145264
3465.45	0.0144396
3475.1	0.013943
3484.74	0.0143825
3494.38	0.0139838
3504.02	0.0135035
3513.67	0.0142096
3523.31	0.0136291
3532.95	0.0138241
3542.59	0.0130597
3552.24	0.0135809
3561.88	0.0129241
3571.52	0.0128038
3581.16	0.0118936
3590.8	0.0120294
3600.45	0.0119508
3610.09	0.0120511
3619.73	0.0135153
3629.37	0.0142024
3639.02	0.0122746
3648.66	0.0133743
3658.3	0.0113189
3667.94	0.0118653
3677.59	0.0116228
3687.23	0.0124803
3696.87	0.0123662
3706.51	0.0127102
3716.16	0.0122028
3725.8	0.0135754
3735.44	0.0143551
3745.08	0.0147382
3754.72	0.01351
3764.37	0.0127795
3774.01	0.0130486
3783.65	0.0129511
3793.29	0.0127542
3802.94	0.0138516
3812.58	0.0121093
3822.22	0.0145763
3831.86	0.0129591
3841.51	0.013386
3851.15	0.0151266
3860.79	0.0127851
3870.43	0.0134009
3880.07	0.0143247
3889.72	0.0128623
3899.36	0.0128519
3909	0.0132379
3918.64	0.0128982
3928.29	0.0126647
3937.93	0.0129414
3947.57	0.0132135
3957.21	0.0134399
3966.86	0.0130835
3976.5	0.0134149
3986.14	0.0124256
3995.78	0.0136061
