Measurement: Infrared, Infrared Data Processed
Mineral: Berthierite
Rruff sample: R070177
Ideal chemistry: Fe^2+^Sb^3+^_2_S^2-^_4_
Locality: Baia Sprie mine (Felsöbánya mine), Baia Sprie (Felsöbánya), Maramures County, Romania
Source: Michael Scott
Description: A mass of parallel silver gray metallic prismatic striated crystals
Measured chemistry: darker phase: (Fe_0.97_Mn_0.03_)_Σ=1_(Sb_1.99_As_0.01_)_Σ=2_S_4.00_ ; lighter phase (bottom): Sb_2.00_S_3.00_ (stibnite)
x	intensity
374.123	0.0709897
383.765	0.0836163
393.407	0.0913119
403.05	0.101426
412.692	0.101907
422.334	0.109906
431.976	0.11196
441.619	0.116392
451.261	0.11856
460.904	0.120037
470.546	0.120469
480.188	0.123586
489.83	0.125969
499.473	0.128225
509.115	0.129901
518.758	0.131543
528.4	0.132708
538.042	0.133904
547.684	0.136033
557.327	0.137799
566.969	0.138678
576.611	0.140598
586.254	0.141726
595.896	0.143585
605.538	0.145091
615.181	0.146654
624.823	0.147282
634.466	0.148512
644.108	0.149679
653.75	0.150651
663.393	0.152193
673.035	0.153122
682.677	0.154944
692.319	0.155599
701.962	0.156788
711.604	0.157747
721.246	0.158511
730.889	0.160124
740.531	0.161843
750.173	0.162801
759.816	0.163692
769.458	0.16462
779.101	0.165504
788.743	0.166673
798.385	0.168019
808.028	0.169084
817.67	0.169497
827.312	0.170911
836.955	0.171676
846.597	0.172739
856.239	0.173662
865.881	0.174889
875.524	0.176546
885.166	0.177518
894.808	0.17901
904.451	0.179816
914.093	0.180944
923.736	0.182034
933.378	0.183074
943.02	0.184127
952.663	0.185148
962.305	0.186001
971.947	0.187214
981.59	0.18819
991.232	0.189016
1000.87	0.19022
1010.52	0.191478
1020.16	0.192241
1029.8	0.192992
1039.44	0.193815
1049.09	0.194714
1058.73	0.195675
1068.37	0.196793
1078.01	0.197928
1087.65	0.19875
1097.3	0.199808
1106.94	0.200932
1116.58	0.20193
1126.22	0.202857
1135.87	0.20442
1145.51	0.206456
1155.15	0.206664
1164.79	0.207328
1174.44	0.208075
1184.08	0.208759
1193.72	0.209768
1203.36	0.210493
1213.01	0.211055
1222.65	0.211487
1232.29	0.212693
1241.93	0.213329
1251.58	0.214002
1261.22	0.214748
1270.86	0.215409
1280.5	0.216321
1290.14	0.217332
1299.79	0.218169
1309.43	0.219146
1319.07	0.219979
1328.71	0.221218
1338.36	0.222257
1348	0.223036
1357.64	0.22416
1367.28	0.225015
1376.92	0.226159
1386.57	0.226912
1396.21	0.227876
1405.85	0.228696
1415.49	0.229685
1425.14	0.230428
1434.78	0.231654
1444.42	0.232635
1454.06	0.233135
1463.71	0.233903
1473.35	0.234394
1482.99	0.234972
1492.63	0.235911
1502.28	0.23729
1511.92	0.237693
1521.56	0.238262
1531.2	0.239198
1540.85	0.240019
1550.49	0.240704
1560.13	0.241694
1569.77	0.242416
1579.41	0.243169
1589.06	0.243931
1598.7	0.245012
1608.34	0.245602
1617.98	0.246459
1627.63	0.24739
1637.27	0.248217
1646.91	0.249066
1656.55	0.249748
1666.19	0.250576
1675.84	0.251051
1685.48	0.251698
1695.12	0.252597
1704.77	0.253472
1714.41	0.254252
1724.05	0.255723
1733.69	0.256594
1743.33	0.255546
1752.98	0.255588
1762.62	0.25646
1772.26	0.257192
1781.9	0.257416
1791.55	0.25813
1801.19	0.258637
1810.83	0.259018
1820.47	0.259242
1830.12	0.259445
1839.76	0.259923
1849.4	0.260201
1859.04	0.260712
1868.68	0.260849
1878.33	0.26202
1887.97	0.262415
1897.61	0.262467
1907.25	0.263558
1916.9	0.264311
1926.54	0.264063
1936.18	0.265849
1945.82	0.26532
1955.46	0.265469
1965.11	0.266433
1974.75	0.26683
1984.39	0.268676
1994.04	0.269628
2003.68	0.270678
2013.32	0.273038
2022.96	0.272671
2032.6	0.273686
2042.25	0.275694
2051.89	0.274582
2061.53	0.275289
2071.17	0.277846
2080.82	0.278764
2090.46	0.278309
2100.1	0.278817
2109.74	0.278829
2119.39	0.280356
2129.03	0.280778
2138.67	0.280818
2148.31	0.283098
2157.95	0.282072
2167.6	0.28287
2177.24	0.283531
2186.88	0.285322
2196.52	0.287461
2206.17	0.286646
2215.81	0.28725
2225.45	0.28718
2235.09	0.289181
2244.74	0.290023
2254.38	0.290245
2264.02	0.290997
2273.66	0.293339
2283.3	0.29336
2292.95	0.293951
2302.59	0.295302
2312.23	0.295263
2321.87	0.297368
2331.52	0.297361
2341.16	0.297789
2350.8	0.298452
2360.44	0.298466
2370.09	0.298602
2379.73	0.299456
2389.37	0.299754
2399.01	0.299699
2408.66	0.300229
2418.3	0.301551
2427.94	0.302091
2437.58	0.301733
2447.22	0.303088
2456.87	0.303876
2466.51	0.303635
2476.15	0.304258
2485.79	0.304903
2495.44	0.305306
2505.08	0.306253
2514.72	0.306658
2524.36	0.307952
2534.01	0.307962
2543.65	0.308877
2553.29	0.309803
2562.93	0.310503
2572.57	0.31162
2582.22	0.313039
2591.86	0.313607
2601.5	0.314909
2611.14	0.315555
2620.79	0.317343
2630.43	0.318386
2640.07	0.319343
2649.71	0.320371
2659.36	0.321593
2669	0.322135
2678.64	0.322366
2688.28	0.323035
2697.93	0.323536
2707.57	0.323945
2717.21	0.324745
2726.85	0.325282
2736.49	0.326126
2746.14	0.326365
2755.78	0.327079
2765.42	0.327759
2775.06	0.328391
2784.71	0.329503
2794.35	0.329543
2803.99	0.33054
2813.63	0.330971
2823.28	0.332445
2832.92	0.333142
2842.56	0.333859
2852.2	0.333781
2861.84	0.334892
2871.49	0.335007
2881.13	0.336239
2890.77	0.336762
2900.41	0.337102
2910.06	0.338409
2919.7	0.338786
2929.34	0.337564
2938.98	0.3379
2948.62	0.338399
2958.27	0.339181
2967.91	0.338615
2977.55	0.339144
2987.2	0.33945
2996.84	0.34053
3006.48	0.340599
3016.12	0.341421
3025.76	0.341654
3035.41	0.342689
3045.05	0.343662
3054.69	0.343786
3064.33	0.344822
3073.98	0.345625
3083.62	0.345635
3093.26	0.347291
3102.9	0.347849
3112.55	0.348745
3122.19	0.348767
3131.83	0.349899
3141.47	0.350356
3151.11	0.350868
3160.76	0.351267
3170.4	0.351628
3180.04	0.352869
3189.68	0.354028
3199.33	0.354259
3208.97	0.354949
3218.61	0.355099
3228.25	0.356467
3237.9	0.356811
3247.54	0.357241
3257.18	0.358397
3266.82	0.35859
3276.47	0.35985
3286.11	0.359583
3295.75	0.360321
3305.39	0.361366
3315.03	0.362392
3324.68	0.362133
3334.32	0.362859
3343.96	0.363363
3353.6	0.364266
3363.25	0.364999
3372.89	0.364652
3382.53	0.366144
3392.17	0.366344
3401.82	0.366986
3411.46	0.367222
3421.1	0.36782
3430.74	0.368822
3440.39	0.369319
3450.03	0.369739
3459.67	0.370279
3469.31	0.370685
3478.95	0.370789
3488.6	0.372267
3498.24	0.371875
3507.88	0.372937
3517.52	0.373446
3527.17	0.373562
3536.81	0.374201
3546.45	0.37574
3556.09	0.37615
3565.74	0.376416
3575.38	0.377412
3585.02	0.377621
3594.66	0.378392
3604.3	0.37932
3613.95	0.380255
3623.59	0.379243
3633.23	0.381003
3642.87	0.381614
3652.52	0.382763
3662.16	0.383531
3671.8	0.384347
3681.44	0.385038
3691.09	0.385792
3700.73	0.385908
3710.37	0.387124
3720.01	0.38735
3729.66	0.389715
3739.3	0.389946
3748.94	0.391204
3758.58	0.390807
3768.22	0.391737
3777.87	0.392123
3787.51	0.393285
3797.15	0.393522
3806.79	0.394467
3816.44	0.393702
3826.08	0.39488
3835.72	0.39595
3845.36	0.397456
3855.01	0.397718
3864.65	0.398452
3874.29	0.397062
3883.93	0.399044
3893.57	0.39954
3903.22	0.400904
3912.86	0.401936
3922.5	0.400242
3932.14	0.402107
3941.79	0.403588
3951.43	0.403244
3961.07	0.402699
3970.71	0.403583
3980.36	0.402451
3990	0.405601
3999.64	0.406591
