Measurement: Infrared, Infrared Data Processed
Mineral: Beryl
Rruff sample: R050065
Ideal chemistry: Be_3_Al_2_Si_6_O_18_
Locality: Xuebaoding, Sichuan Province, China
Source: Rock Currier
Description: Light blue colored tabular single crystal
Measured chemistry: (Be_2.78_Li_0.22_)_Σ=3_Al_2.00_Si_6.00_O_18_·Na_0.22_
x	intensity
374.123	0.175313
383.765	0.157958
393.407	0.16441
403.05	0.19137
412.692	0.215657
422.334	0.227034
431.976	0.23426
441.619	0.217338
451.261	0.188081
460.904	0.163879
470.546	0.165221
480.188	0.186077
489.83	0.202538
499.473	0.182319
509.115	0.174032
518.758	0.199106
528.4	0.177528
538.042	0.134703
547.684	0.0998803
557.327	0.0807318
566.969	0.0803934
576.611	0.069812
586.254	0.0962473
595.896	0.10681
605.538	0.0786887
615.181	0.0523597
624.823	0.0497022
634.466	0.0615507
644.108	0.0952257
653.75	0.106865
663.393	0.130242
673.035	0.161238
682.677	0.148307
692.319	0.121686
701.962	0.10024
711.604	0.0840898
721.246	0.087285
730.889	0.10321
740.531	0.112659
750.173	0.106145
759.816	0.0865984
769.458	0.0717815
779.101	0.0763801
788.743	0.0968262
798.385	0.12686
808.028	0.135784
817.67	0.129842
827.312	0.112917
836.955	0.0914491
846.597	0.0761941
856.239	0.071435
865.881	0.0781958
875.524	0.0949387
885.166	0.11832
894.808	0.144634
904.451	0.170848
914.093	0.195533
923.736	0.216386
933.378	0.231263
943.02	0.237887
952.663	0.233028
962.305	0.205169
971.947	0.165553
981.59	0.130939
991.232	0.105752
1000.87	0.103381
1010.52	0.11069
1020.16	0.11145
1029.8	0.109681
1039.44	0.105953
1049.09	0.104981
1058.73	0.106014
1068.37	0.0984087
1078.01	0.0831808
1087.65	0.067917
1097.3	0.058078
1106.94	0.0576356
1116.58	0.0671406
1126.22	0.0859771
1135.87	0.102239
1145.51	0.106253
1155.15	0.107589
1164.79	0.113562
1174.44	0.11754
1184.08	0.112979
1193.72	0.103401
1203.36	0.0877311
1213.01	0.0718323
1222.65	0.0574258
1232.29	0.0447634
1241.93	0.0338919
1251.58	0.0249971
1261.22	0.0166441
1270.86	0.00934575
1280.5	0.00473869
1290.14	0.00289661
1299.79	0.00199916
1309.43	0.00157459
1319.07	0.00113852
1328.71	0.000953282
1338.36	0.000690223
1348	0.000395295
1357.64	0.00023383
1367.28	0.000101438
1376.92	-4.26191e-05
1386.57	-0.000140444
1396.21	-0.000125647
1405.85	-2.31621e-05
1415.49	-9.97513e-05
1425.14	4.34988e-05
1434.78	7.91802e-05
1444.42	-0.000146342
1454.06	-0.000112035
1463.71	-0.000353989
1473.35	-0.000313159
1482.99	-0.000707955
1492.63	-0.000807021
1502.28	-0.000804487
1511.92	-0.000707331
1521.56	-0.00055173
1531.2	-0.000743262
1540.85	0.000210566
1550.49	-0.000138088
1560.13	0.000290522
1569.77	-0.000108837
1579.41	-0.000164322
1589.06	-0.000109139
1598.7	0.00105234
1608.34	0.000686073
1617.98	0.004599
1627.63	0.0094538
1637.27	0.00384526
1646.91	0.000367358
1656.55	-0.000143677
1666.19	-0.000548004
1675.84	-0.000389484
1685.48	-9.46174e-05
1695.12	-0.000268504
1704.77	-0.000433193
1714.41	-0.000590784
1724.05	-0.000874594
1733.69	-0.000683738
1743.33	-0.00167606
1752.98	-0.00165454
1762.62	-0.00137068
1772.26	-0.00122785
1781.9	-0.00157285
1791.55	-0.00137878
1801.19	-0.00156708
1810.83	-0.00170758
1820.47	-0.00178249
1830.12	-0.00173092
1839.76	-0.00185045
1849.4	-0.00244901
1859.04	-0.00194838
1868.68	-0.00193466
1878.33	-0.00235817
1887.97	-0.00248391
1897.61	-0.00223086
1907.25	-0.00258392
1916.9	-0.00208274
1926.54	-0.00229924
1936.18	-0.00322579
1945.82	-0.00295495
1955.46	-0.00425316
1965.11	-0.00250159
1974.75	-0.00330543
1984.39	-0.00142507
1994.04	-0.000873946
2003.68	-0.00360323
2013.32	-0.00198819
2022.96	-0.00289282
2032.6	0.000270464
2042.25	-0.000942715
2051.89	-0.000575054
2061.53	-0.000970403
2071.17	-0.0007445
2080.82	-0.000557845
2090.46	-0.000672718
2100.1	-0.00092878
2109.74	-0.00053629
2119.39	-0.001483
2129.03	-0.00167157
2138.67	-0.0028018
2148.31	-0.00230241
2157.95	-0.00206241
2167.6	0.000592778
2177.24	-0.000665761
2186.88	0.00109589
2196.52	0.000384283
2206.17	0.000412299
2215.81	-0.000483485
2225.45	0.000223484
2235.09	0.000230275
2244.74	-0.000441108
2254.38	-0.000641142
2264.02	-0.000898985
2273.66	-0.000588636
2283.3	0.000180357
2292.95	5.80549e-05
2302.59	0.000307181
2312.23	0.000342178
2321.87	0.00140908
2331.52	0.000369376
2341.16	0.000299085
2350.8	-0.000456758
2360.44	0.00101759
2370.09	-0.000187857
2379.73	-0.00140178
2389.37	-0.00141154
2399.01	-0.00166193
2408.66	-0.00102141
2418.3	-0.0013334
2427.94	-0.0015499
2437.58	-0.00132696
2447.22	-0.000995071
2456.87	-0.000817013
2466.51	-0.000642227
2476.15	-0.000643965
2485.79	-0.000875909
2495.44	-0.000755583
2505.08	-0.000387061
2514.72	-0.000651345
2524.36	-3.91524e-05
2534.01	7.51789e-05
2543.65	0.000208434
2553.29	0.000169668
2562.93	0.000725011
2572.57	0.0012424
2582.22	0.00101612
2591.86	0.00177379
2601.5	0.00118498
2611.14	0.00115366
2620.79	0.00146085
2630.43	0.00177778
2640.07	0.00153697
2649.71	0.00164646
2659.36	0.00112152
2669	0.00120319
2678.64	0.000893921
2688.28	0.000937405
2697.93	0.00118661
2707.57	0.000943622
2717.21	0.00101472
2726.85	0.00116054
2736.49	0.0011402
2746.14	0.00113154
2755.78	0.00111958
2765.42	0.00139278
2775.06	0.00113593
2784.71	0.00140328
2794.35	0.00122515
2803.99	0.000994462
2813.63	0.00136739
2823.28	0.00162532
2832.92	0.00171037
2842.56	0.0010568
2852.2	0.000360358
2861.84	0.00106412
2871.49	0.0014497
2881.13	0.00184512
2890.77	0.00145585
2900.41	0.00113141
2910.06	0.000820869
2919.7	-0.000337626
2929.34	-1.11252e-05
2938.98	0.000592329
2948.62	0.000825055
2958.27	0.00140322
2967.91	0.00133051
2977.55	0.00182624
2987.2	0.00167684
2996.84	0.00185963
3006.48	0.00173852
3016.12	0.00191552
3025.76	0.00196029
3035.41	0.00208026
3045.05	0.00200622
3054.69	0.00237095
3064.33	0.00273997
3073.98	0.00236929
3083.62	0.00280083
3093.26	0.00226886
3102.9	0.00228715
3112.55	0.00277864
3122.19	0.00292326
3131.83	0.00301913
3141.47	0.00286559
3151.11	0.00266516
3160.76	0.0035778
3170.4	0.00358788
3180.04	0.00336778
3189.68	0.00342186
3199.33	0.00405657
3208.97	0.00384019
3218.61	0.00357469
3228.25	0.00356664
3237.9	0.00395434
3247.54	0.00354665
3257.18	0.00418377
3266.82	0.00359898
3276.47	0.00440642
3286.11	0.00396501
3295.75	0.00398049
3305.39	0.00409221
3315.03	0.00397892
3324.68	0.00366346
3334.32	0.00465454
3343.96	0.00371085
3353.6	0.0046184
3363.25	0.00460676
3372.89	0.00443278
3382.53	0.00582343
3392.17	0.00451295
3401.82	0.00477886
3411.46	0.00421872
3421.1	0.00451591
3430.74	0.0043736
3440.39	0.00399999
3450.03	0.00373628
3459.67	0.00396177
3469.31	0.00392455
3478.95	0.0039668
3488.6	0.00471937
3498.24	0.00380233
3507.88	0.00332795
3517.52	0.00400667
3527.17	0.00325026
3536.81	0.00402528
3546.45	0.00322475
3556.09	0.00450289
3565.74	0.0047513
3575.38	0.00478949
3585.02	0.00641683
3594.66	0.00999054
3604.3	0.0032262
3613.95	0.00270687
3623.59	0.00372292
3633.23	0.00429515
3642.87	0.00436443
3652.52	0.00610836
3662.16	0.00503493
3671.8	0.00442274
3681.44	0.00280752
3691.09	0.0041407
3700.73	0.00382716
3710.37	0.00252565
3720.01	0.00204543
3729.66	0.00199311
3739.3	0.0030308
3748.94	0.00330773
3758.58	0.00204654
3768.22	0.0019792
3777.87	0.00216304
3787.51	0.00174242
3797.15	0.00259778
3806.79	0.00216132
3816.44	0.00251738
3826.08	0.0022878
3835.72	0.00189076
3845.36	0.00205618
3855.01	0.00374453
3864.65	0.00227502
3874.29	0.00263741
3883.93	0.00234957
3893.57	0.00193234
3903.22	0.00209325
3912.86	0.00176663
3922.5	0.000915753
3932.14	0.00161724
3941.79	0.000593694
3951.43	0.00128472
3961.07	0.00152192
3970.71	0.00189991
3980.36	0.00159679
3990	0.00102143
3999.64	0.00117654
