Measurement: Infrared, Infrared Data Processed
Mineral: Beryl
Rruff sample: R050120
Ideal chemistry: Be_3_Al_2_Si_6_O_18_
Locality: Cruziero mine, San Jose, Minas Gerais, Brazil
Source: Carlos and Paulo Vasconcelos
Description: Yellow gemmy fragment
Measured chemistry: (Be_2.76_Li_0.24_)_Σ=3_Al_2.00_Si_6.00_O_18_·Na_0.24_
x	intensity
399.193	0.189094
408.835	0.207932
418.477	0.231148
428.12	0.23819
437.762	0.229006
447.404	0.203822
457.047	0.172962
466.689	0.162407
476.331	0.173609
485.974	0.196502
495.616	0.201497
505.258	0.171637
514.901	0.198811
524.543	0.196405
534.185	0.157224
543.828	0.117959
553.47	0.0924644
563.112	0.0891944
572.755	0.0773374
582.397	0.082983
592.039	0.109946
601.682	0.097807
611.324	0.0708657
620.966	0.0576305
630.609	0.061533
640.251	0.0872903
649.893	0.113688
659.536	0.118715
669.178	0.157019
678.82	0.161344
688.463	0.137395
698.105	0.118398
707.747	0.0966468
717.39	0.089356
727.032	0.102188
736.674	0.113538
746.317	0.11297
755.959	0.0958041
765.601	0.073464
775.244	0.0681699
784.886	0.0791367
794.528	0.100396
804.171	0.121653
813.813	0.12982
823.455	0.122312
833.098	0.103071
842.74	0.0835278
852.382	0.0737123
862.025	0.080933
871.667	0.0896593
881.309	0.100504
890.952	0.127016
900.594	0.156164
910.236	0.185164
919.879	0.210652
929.521	0.229355
939.163	0.23979
948.806	0.242224
958.448	0.225624
968.09	0.18619
977.733	0.14654
987.375	0.114951
997.017	0.10429
1006.66	0.111913
1016.3	0.116298
1025.94	0.117969
1035.59	0.119056
1045.23	0.119309
1054.87	0.120264
1064.51	0.113997
1074.16	0.097356
1083.8	0.0794195
1093.44	0.0671858
1103.08	0.0613504
1112.72	0.0675305
1122.37	0.0857562
1132.01	0.107624
1141.65	0.11614
1151.3	0.11779
1160.94	0.121281
1170.58	0.124711
1180.22	0.119907
1189.86	0.107575
1199.51	0.0913557
1209.15	0.0748802
1218.79	0.0604341
1228.43	0.0475962
1238.08	0.036905
1247.72	0.0275736
1257.36	0.0192955
1267	0.0116006
1276.64	0.00666722
1286.29	0.0050127
1295.93	0.00408745
1305.57	0.00339688
1315.21	0.00343127
1324.86	0.00343806
1334.5	0.00372132
1344.14	0.00380636
1353.78	0.00372647
1363.43	0.00450947
1373.07	0.00561483
1382.71	0.00709635
1392.35	0.00922112
1401.99	0.0137092
1411.64	0.0187949
1421.28	0.0219833
1430.92	0.024871
1440.57	0.0269749
1450.21	0.0274254
1459.85	0.0268242
1469.49	0.0242806
1479.13	0.021555
1488.78	0.0185277
1498.42	0.0151168
1508.06	0.0114722
1517.7	0.00786758
1527.35	0.00563156
1536.99	0.00441751
1546.63	0.00369811
1556.27	0.0036939
1565.91	0.0031768
1575.56	0.00392857
1585.2	0.00347255
1594.84	0.00370159
1604.48	0.00376697
1614.13	0.00551756
1623.77	0.014199
1633.41	0.00883849
1643.05	0.00245028
1652.7	0.00183082
1662.34	0.0014227
1671.98	0.00112271
1681.62	0.0012246
1691.27	0.00106442
1700.91	0.00173167
1710.55	0.000869337
1720.19	0.000961093
1729.84	0.000799206
1739.48	0.000540431
1749.12	0.000394626
1758.76	0.000284816
1768.4	0.000613942
1778.05	0.000197792
1787.69	0.000636548
1797.33	0.000673558
1806.97	0.000333303
1816.62	-0.0002045
1826.26	-0.000298473
1835.9	-0.000644004
1845.54	0.000199271
1855.18	-0.00055182
1864.83	-0.000312938
1874.47	-0.00145546
1884.11	-0.000724326
1893.75	-0.0014417
1903.4	-0.000982078
1913.04	-0.00142366
1922.68	-0.00150746
1932.32	-0.00225616
1941.97	-0.00158669
1951.61	-0.00155047
1961.25	-0.00156705
1970.89	-0.00323681
1980.54	0.000705619
1990.18	-0.00129369
1999.82	-0.00225317
2009.46	-0.00134809
2019.11	-0.00193337
2028.75	-0.00193113
2038.39	-0.00115185
2048.03	0.00033957
2057.67	-0.00129521
2067.32	9.5363e-05
2076.96	-0.000493107
2086.6	-0.000964497
2096.24	-0.00098236
2105.89	-0.000438531
2115.53	-0.000670681
2125.17	-0.00112791
2134.81	-0.00191516
2144.45	-0.00200364
2154.1	-0.00263227
2163.74	0.000590786
2173.38	-0.000245545
2183.02	-0.000631109
2192.67	-0.000461689
2202.31	0.000300808
2211.95	-0.000840932
2221.59	0.000577878
2231.24	-0.00110247
2240.88	-0.000942614
2250.52	-0.000831431
2260.16	-0.000425389
2269.8	-0.000230818
2279.45	-1.32109e-05
2289.09	0.000835262
2298.73	0.000103293
2308.38	0.000281928
2318.02	0.00164162
2327.66	0.00133259
2337.3	0.00172327
2346.94	0.000606622
2356.59	0.00191469
2366.23	0.000926796
2375.87	1.40771e-05
2385.51	0.000117857
2395.16	0.000281154
2404.8	-0.000139971
2414.44	5.82086e-05
2424.08	0.00030291
2433.72	0.000467807
2443.37	0.000868494
2453.01	0.00112911
2462.65	0.00183612
2472.29	0.00177063
2481.94	0.00198533
2491.58	0.00243275
2501.22	0.00279776
2510.86	0.00209984
2520.51	0.00244118
2530.15	0.00249601
2539.79	0.00204262
2549.43	0.00314528
2559.07	0.00224256
2568.72	0.00324034
2578.36	0.00327774
2588	0.00363848
2597.64	0.00428865
2607.29	0.00305103
2616.93	0.00333992
2626.57	0.00367308
2636.21	0.00326205
2645.86	0.0038641
2655.5	0.00360486
2665.14	0.00258489
2674.78	0.00319347
2684.43	0.00229263
2694.07	0.00297917
2703.71	0.00258769
2713.35	0.00306947
2722.99	0.00274407
2732.64	0.00271828
2742.28	0.00283075
2751.92	0.00278027
2761.56	0.00335782
2771.21	0.00324127
2780.85	0.00295746
2790.49	0.00340543
2800.13	0.00346295
2809.78	0.00292833
2819.42	0.0033528
2829.06	0.00326386
2838.7	0.00349726
2848.34	0.00331417
2857.99	0.00320706
2867.63	0.00315061
2877.27	0.00284908
2886.91	0.00316275
2896.56	0.00251863
2906.2	0.00245327
2915.84	0.00286231
2925.48	0.00244078
2935.13	0.00213694
2944.77	0.00233914
2954.41	0.00209262
2964.05	0.00197647
2973.7	0.00241647
2983.34	0.00153607
2992.98	0.00306278
3002.62	0.00257721
3012.26	0.00162448
3021.91	0.00252562
3031.55	0.00299589
3041.19	0.00252688
3050.83	0.00336999
3060.48	0.00300931
3070.12	0.00295589
3079.76	0.00304422
3089.4	0.00332842
3099.05	0.00289882
3108.69	0.0037281
3118.33	0.00374443
3127.97	0.00354869
3137.61	0.0034431
3147.26	0.00306023
3156.9	0.00360468
3166.54	0.00358981
3176.18	0.00383016
3185.83	0.00326068
3195.47	0.0032662
3205.11	0.00278053
3214.75	0.00250929
3224.4	0.00399245
3234.04	0.00321542
3243.68	0.00346041
3253.32	0.00371785
3262.97	0.00281418
3272.61	0.00302145
3282.25	0.0035163
3291.89	0.0042732
3301.53	0.0036711
3311.18	0.00247429
3320.82	0.00351983
3330.46	0.00274277
3340.1	0.00280006
3349.75	0.00351915
3359.39	0.00391786
3369.03	0.00353037
3378.67	0.00246707
3388.32	0.00278128
3397.96	0.00288825
3407.6	0.00356723
3417.24	0.00360901
3426.89	0.00372268
3436.53	0.00467601
3446.17	0.00295152
3455.81	0.0017532
3465.45	0.00318829
3475.1	0.0025455
3484.74	0.00382107
3494.38	0.00271775
3504.02	0.00303562
3513.67	0.00245093
3523.31	0.00255824
3532.95	0.00334651
3542.59	0.0024037
3552.24	0.00429283
3561.88	0.00316832
3571.52	0.00379485
3581.16	0.00509196
3590.8	0.00894735
3600.45	0.0050943
3610.09	0.00371819
3619.73	0.00340407
3629.37	0.00302721
3639.02	0.00360172
3648.66	0.00526564
3658.3	0.00392876
3667.94	0.00410728
3677.59	0.00472601
3687.23	0.00395686
3696.87	0.00234742
3706.51	0.00174107
3716.16	0.000786191
3725.8	0.00269144
3735.44	0.00166246
3745.08	0.00343992
3754.72	0.0017357
3764.37	0.00192085
3774.01	0.000310322
3783.65	0.000915004
3793.29	0.000890707
3802.94	0.000848372
3812.58	0.0011045
3822.22	2.98466e-05
3831.86	0.000400623
3841.51	0.000166158
3851.15	0.00104104
3860.79	-7.86417e-05
3870.43	-0.000198931
3880.07	0.000548435
3889.72	0.00112639
3899.36	0.00124704
3909	6.42328e-05
3918.64	0.00101093
3928.29	0.000280421
3937.93	-0.00017158
3947.57	-0.000517277
3957.21	0.000540482
3966.86	0.000343511
3976.5	-0.001086
3986.14	-0.000315781
3995.78	-0.00144243
