Measurement: Infrared, Infrared Data Processed
Mineral: Beryl
Rruff sample: R050305
Ideal chemistry: Be_3_Al_2_Si_6_O_18_
Locality: Conselheiro Pena, Minas Gerais, Brazil
Source: Eugene Schlepp
Description: Light blue fragment, variety aquamarine
Measured chemistry: (Be_0.91_Li_0.09_)_3_(Al_0.99_Fe^3+^_0.01_)_2_Si_6.00_O_18_Î‡Na_0.27_
x	intensity
399.193	0.147709
408.835	0.159748
418.477	0.180719
428.12	0.190159
437.762	0.185675
447.404	0.164495
457.047	0.142968
466.689	0.130719
476.331	0.141638
485.974	0.160011
495.616	0.16257
505.258	0.138305
514.901	0.161278
524.543	0.158084
534.185	0.128542
543.828	0.0972272
553.47	0.0775079
563.112	0.0744976
572.755	0.0660888
582.397	0.0718266
592.039	0.0944955
601.682	0.0824917
611.324	0.058404
620.966	0.0484783
630.609	0.052828
640.251	0.0752242
649.893	0.0963392
659.536	0.0992604
669.178	0.129393
678.82	0.13342
688.463	0.113218
698.105	0.0965969
707.747	0.0793341
717.39	0.0749855
727.032	0.0840388
736.674	0.0948993
746.317	0.0945192
755.959	0.080354
765.601	0.0634633
775.244	0.0597473
784.886	0.0698929
794.528	0.0870338
804.171	0.104884
813.813	0.110053
823.455	0.102322
833.098	0.085894
842.74	0.0704206
852.382	0.0627392
862.025	0.0639457
871.667	0.0732939
881.309	0.0890605
890.952	0.110912
900.594	0.135884
910.236	0.160563
919.879	0.182856
929.521	0.198363
939.163	0.205295
948.806	0.205454
958.448	0.188217
968.09	0.155007
977.733	0.124322
987.375	0.0999352
997.017	0.0923708
1006.66	0.0994913
1016.3	0.102086
1025.94	0.101195
1035.59	0.0983233
1045.23	0.0963822
1054.87	0.0975271
1064.51	0.0940914
1074.16	0.0815139
1083.8	0.0678824
1093.44	0.0567548
1103.08	0.053129
1112.72	0.0586792
1122.37	0.0747022
1132.01	0.0938292
1141.65	0.100606
1151.3	0.102109
1160.94	0.105133
1170.58	0.107764
1180.22	0.103757
1189.86	0.0939534
1199.51	0.0808032
1209.15	0.0670619
1218.79	0.0545124
1228.43	0.0432121
1238.08	0.0335186
1247.72	0.0256516
1257.36	0.0181015
1267	0.0109678
1276.64	0.0065284
1286.29	0.00461536
1295.93	0.00394758
1305.57	0.00329267
1315.21	0.00323262
1324.86	0.00309172
1334.5	0.00278152
1344.14	0.00247328
1353.78	0.00239486
1363.43	0.00230937
1373.07	0.00251966
1382.71	0.00227277
1392.35	0.00276524
1401.99	0.00297631
1411.64	0.00298061
1421.28	0.00289412
1430.92	0.00259521
1440.57	0.00214147
1450.21	0.0017327
1459.85	0.00114301
1469.49	0.00120178
1479.13	0.00257896
1488.78	0.00268701
1498.42	0.00286267
1508.06	0.00335705
1517.7	0.00271059
1527.35	0.0028665
1536.99	0.00325946
1546.63	0.00304847
1556.27	0.00345458
1565.91	0.0032841
1575.56	0.00391393
1585.2	0.00401164
1594.84	0.00503224
1604.48	0.0048584
1614.13	0.00788829
1623.77	0.0152383
1633.41	0.0112089
1643.05	0.00494394
1652.7	0.00603168
1662.34	0.00453185
1671.98	0.00443066
1681.62	0.0041155
1691.27	0.0037646
1700.91	0.00397484
1710.55	0.00296117
1720.19	0.00240601
1729.84	0.00140281
1739.48	-0.000463481
1749.12	-0.00083601
1758.76	0.00203271
1768.4	0.00352762
1778.05	0.00325524
1787.69	0.00290621
1797.33	0.00299565
1806.97	0.003077
1816.62	0.0025948
1826.26	0.00257694
1835.9	0.00266043
1845.54	0.00311664
1855.18	0.00291488
1864.83	0.00306349
1874.47	0.0027423
1884.11	0.00316968
1893.75	0.00264555
1903.4	0.00185626
1913.04	0.00237748
1922.68	0.00200035
1932.32	0.00178912
1941.97	0.00352621
1951.61	0.000843841
1961.25	0.0010519
1970.89	0.00278594
1980.54	0.00425356
1990.18	0.0046562
1999.82	0.00162945
2009.46	0.000257442
2019.11	0.00144874
2028.75	-0.0014864
2038.39	0.00136617
2048.03	0.00253341
2057.67	0.000642409
2067.32	0.00482627
2076.96	0.00310193
2086.6	0.00360917
2096.24	0.00414992
2105.89	0.00340332
2115.53	0.00284743
2125.17	0.00212215
2134.81	0.00178679
2144.45	-0.000295611
2154.1	-5.78825e-05
2163.74	0.004103
2173.38	0.00463249
2183.02	0.00629955
2192.67	0.00471375
2202.31	0.0046577
2211.95	0.00765938
2221.59	0.00894473
2231.24	0.00265661
2240.88	0.00411274
2250.52	0.00510412
2260.16	0.00569987
2269.8	0.00358241
2279.45	0.00531513
2289.09	0.00631706
2298.73	0.00666819
2308.38	0.00676345
2318.02	0.00729839
2327.66	0.00676343
2337.3	0.00719835
2346.94	0.00613376
2356.59	0.00798037
2366.23	0.00636693
2375.87	0.00514083
2385.51	0.00629015
2395.16	0.00585202
2404.8	0.00658112
2414.44	0.0058606
2424.08	0.00569308
2433.72	0.0080321
2443.37	0.00653246
2453.01	0.00734967
2462.65	0.00701579
2472.29	0.00764916
2481.94	0.00718539
2491.58	0.00851265
2501.22	0.00674909
2510.86	0.00859002
2520.51	0.00792029
2530.15	0.00826704
2539.79	0.00846984
2549.43	0.00835976
2559.07	0.00806216
2568.72	0.00732533
2578.36	0.00972534
2588	0.00985885
2597.64	0.0106375
2607.29	0.0103675
2616.93	0.0112924
2626.57	0.00843269
2636.21	0.0102186
2645.86	0.00946864
2655.5	0.00943652
2665.14	0.00950346
2674.78	0.00916296
2684.43	0.00980712
2694.07	0.00898955
2703.71	0.00799225
2713.35	0.0102698
2722.99	0.00999508
2732.64	0.010036
2742.28	0.00979539
2751.92	0.0111943
2761.56	0.0103182
2771.21	0.0105872
2780.85	0.0109134
2790.49	0.0109921
2800.13	0.0111972
2809.78	0.0132832
2819.42	0.011014
2829.06	0.00975764
2838.7	0.0129332
2848.34	0.0103777
2857.99	0.010405
2867.63	0.010702
2877.27	0.011592
2886.91	0.0124381
2896.56	0.014645
2906.2	0.0123428
2915.84	0.0122748
2925.48	0.0121502
2935.13	0.0119402
2944.77	0.0101995
2954.41	0.0103005
2964.05	0.011695
2973.7	0.0124007
2983.34	0.0128627
2992.98	0.0132587
3002.62	0.0139348
3012.26	0.01379
3021.91	0.0136472
3031.55	0.0122946
3041.19	0.0132431
3050.83	0.0117479
3060.48	0.0124882
3070.12	0.0116385
3079.76	0.0121231
3089.4	0.014965
3099.05	0.014057
3108.69	0.0134624
3118.33	0.0155295
3127.97	0.0147811
3137.61	0.0155321
3147.26	0.0155345
3156.9	0.0111999
3166.54	0.0123298
3176.18	0.013129
3185.83	0.0152237
3195.47	0.0167179
3205.11	0.0142472
3214.75	0.0123529
3224.4	0.0163026
3234.04	0.0145886
3243.68	0.0158698
3253.32	0.0163051
3262.97	0.0166529
3272.61	0.0144075
3282.25	0.0154383
3291.89	0.0151944
3301.53	0.0162189
3311.18	0.0178633
3320.82	0.0157997
3330.46	0.0155983
3340.1	0.0162652
3349.75	0.0190189
3359.39	0.0144995
3369.03	0.0152774
3378.67	0.0162807
3388.32	0.0148438
3397.96	0.0169184
3407.6	0.0141107
3417.24	0.015467
3426.89	0.016159
3436.53	0.0194531
3446.17	0.0197791
3455.81	0.0207639
3465.45	0.0191596
3475.1	0.0206409
3484.74	0.0195104
3494.38	0.0158617
3504.02	0.0159411
3513.67	0.0204109
3523.31	0.0184632
3532.95	0.0188512
3542.59	0.0208569
3552.24	0.0219824
3561.88	0.0157148
3571.52	0.0193692
3581.16	0.0167487
3590.8	0.0238485
3600.45	0.0207452
3610.09	0.0143268
3619.73	0.0166365
3629.37	0.01493
3639.02	0.0167395
3648.66	0.0193349
3658.3	0.0160875
3667.94	0.0143662
3677.59	0.0171804
3687.23	0.0149343
3696.87	0.0202538
3706.51	0.0179986
3716.16	0.0147307
3725.8	0.0147829
3735.44	0.0119057
3745.08	0.021313
3754.72	0.016024
3764.37	0.0144384
3774.01	0.0145154
3783.65	0.0127539
3793.29	0.0151367
3802.94	0.01208
3812.58	0.0160159
3822.22	0.0163254
3831.86	0.0158763
3841.51	0.0189932
3851.15	0.0126874
3860.79	0.017739
3870.43	0.0182149
3880.07	0.013408
3889.72	0.0202232
3899.36	0.0174345
3909	0.01466
3918.64	0.0134674
3928.29	0.0133262
3937.93	0.0181341
3947.57	0.00831435
3957.21	0.0177216
3966.86	0.0145363
3976.5	0.014946
3986.14	0.0169052
3995.78	0.0146335
