Measurement: Infrared, Infrared Data Processed
Mineral: Beryl
Rruff sample: R040002
Ideal chemistry: Be_3_Al_2_Si_6_O_18_
Locality: Usakos, Namibia
Source: University of Arizona Mineral Museum
Description: Light blue hexagonal prism, variety aquamarine
Measured chemistry: (Be_0.97_Li_0.03_)_3_(Al_0.97_Fe^3+^_0.03_)_2_Si_6_O_18_Î‡Na_0.01_
x	intensity
374.123	0.18293
383.765	0.171959
393.407	0.178316
403.05	0.231165
412.692	0.254224
422.334	0.279806
431.976	0.271081
441.619	0.244508
451.261	0.212118
460.904	0.186787
470.546	0.187784
480.188	0.215039
489.83	0.229535
499.473	0.160505
509.115	0.196571
518.758	0.224188
528.4	0.194549
538.042	0.149188
547.684	0.0990241
557.327	0.0632749
566.969	0.0446111
576.611	0.065903
586.254	0.187395
595.896	0.137681
605.538	0.0565482
615.181	0.0367745
624.823	0.040383
634.466	0.0554776
644.108	0.104799
653.75	0.148287
663.393	0.160199
673.035	0.238175
682.677	0.22358
692.319	0.148706
701.962	0.0960181
711.604	0.0875895
721.246	0.105356
730.889	0.127998
740.531	0.135332
750.173	0.11819
759.816	0.0903875
769.458	0.0781841
779.101	0.0929722
788.743	0.127687
798.385	0.170902
808.028	0.175646
817.67	0.139453
827.312	0.103249
836.955	0.0810006
846.597	0.0747851
856.239	0.0796202
865.881	0.092387
875.524	0.111423
885.166	0.13552
894.808	0.163414
904.451	0.196256
914.093	0.229035
923.736	0.254249
933.378	0.270027
943.02	0.278641
952.663	0.27967
962.305	0.261509
971.947	0.220792
981.59	0.178709
991.232	0.141015
1000.87	0.119296
1010.52	0.124541
1020.16	0.125575
1029.8	0.0928488
1039.44	0.071681
1049.09	0.0615867
1058.73	0.0543681
1068.37	0.0469196
1078.01	0.0407366
1087.65	0.0357675
1097.3	0.0334228
1106.94	0.0334414
1116.58	0.035556
1126.22	0.0401018
1135.87	0.0475613
1145.51	0.0605024
1155.15	0.0781667
1164.79	0.103304
1174.44	0.13343
1184.08	0.165508
1193.72	0.195264
1203.36	0.206092
1213.01	0.18271
1222.65	0.14802
1232.29	0.117846
1241.93	0.0920892
1251.58	0.0706448
1261.22	0.0525124
1270.86	0.0367889
1280.5	0.0243262
1290.14	0.0115031
1299.79	0.00669497
1309.43	0.00488833
1319.07	0.00396706
1328.71	0.00330468
1338.36	0.00295597
1348	0.0023487
1357.64	0.00205061
1367.28	0.00200085
1376.92	0.00169154
1386.57	0.00159789
1396.21	0.00142618
1405.85	0.00150836
1415.49	0.00134326
1425.14	0.00142236
1434.78	0.00119483
1444.42	0.00115539
1454.06	0.0013914
1463.71	0.000998009
1473.35	0.00112448
1482.99	0.00024072
1492.63	8.94244e-05
1502.28	-5.00234e-05
1511.92	-9.05672e-05
1521.56	0.000142439
1531.2	-0.00012855
1540.85	0.000850494
1550.49	0.000120894
1560.13	0.000884638
1569.77	0.00046937
1579.41	0.000486916
1589.06	0.000482723
1598.7	0.000824883
1608.34	0.000779547
1617.98	0.00104709
1627.63	0.00124666
1637.27	0.00139992
1646.91	0.00138909
1656.55	0.000979819
1666.19	0.000642462
1675.84	0.000546982
1685.48	0.000920375
1695.12	0.000930251
1704.77	0.000439307
1714.41	0.000445202
1724.05	0.000747679
1733.69	0.0017766
1743.33	0.000223925
1752.98	-0.000305863
1762.62	-0.000374795
1772.26	-8.25589e-05
1781.9	-9.77078e-05
1791.55	-6.755e-05
1801.19	-9.26189e-05
1810.83	-0.00025076
1820.47	-0.000371903
1830.12	-0.000374904
1839.76	-0.000759122
1849.4	-0.000818993
1859.04	-0.00110012
1868.68	-0.000770873
1878.33	-0.00108083
1887.97	-0.000903124
1897.61	-0.000918163
1907.25	-0.00139001
1916.9	-0.000341892
1926.54	-0.00188398
1936.18	-0.000993599
1945.82	-0.00109681
1955.46	-0.00201893
1965.11	-0.00149392
1974.75	-0.0019558
1984.39	-0.000564024
1994.04	-0.000288878
2003.68	-0.00216692
2013.32	-0.00208997
2022.96	-0.00271276
2032.6	-0.00264095
2042.25	-0.000155419
2051.89	0.000811186
2061.53	-0.000854794
2071.17	0.000215306
2080.82	0.00144571
2090.46	0.000508966
2100.1	0.00114246
2109.74	0.00108906
2119.39	6.63639e-05
2129.03	-0.000836688
2138.67	-0.000346313
2148.31	-0.0018337
2157.95	-0.00133513
2167.6	0.00410389
2177.24	0.00227821
2186.88	0.00291498
2196.52	0.00264768
2206.17	0.00170224
2215.81	0.00110617
2225.45	0.00208365
2235.09	0.00198648
2244.74	0.00190048
2254.38	0.00123439
2264.02	0.000808106
2273.66	0.00107857
2283.3	0.00214957
2292.95	0.00239661
2302.59	0.00120472
2312.23	0.00149853
2321.87	0.00286806
2331.52	0.00149757
2341.16	0.000850002
2350.8	0.000207914
2360.44	0.000609914
2370.09	-0.000850605
2379.73	-0.00190373
2389.37	-0.00184119
2399.01	-0.00246823
2408.66	-0.00202095
2418.3	-0.00284405
2427.94	-0.00204524
2437.58	-0.00217661
2447.22	-0.0016681
2456.87	-0.00116501
2466.51	-0.00131946
2476.15	-0.0007402
2485.79	-0.00144765
2495.44	-0.000141215
2505.08	-0.000136532
2514.72	-0.000967782
2524.36	0.000252211
2534.01	0.000616873
2543.65	-2.1323e-05
2553.29	0.000423677
2562.93	0.000613378
2572.57	0.00109501
2582.22	0.00118005
2591.86	0.00126218
2601.5	0.00158828
2611.14	0.00174164
2620.79	0.00169754
2630.43	0.00193495
2640.07	0.00186564
2649.71	0.00220341
2659.36	0.00157375
2669	0.00105852
2678.64	0.00127939
2688.28	0.00081825
2697.93	0.000886847
2707.57	0.00105953
2717.21	0.000911657
2726.85	0.000729091
2736.49	0.0011077
2746.14	0.00104403
2755.78	0.00118872
2765.42	0.00117866
2775.06	0.00102116
2784.71	0.0013476
2794.35	0.00156528
2803.99	0.00133014
2813.63	0.00176056
2823.28	0.00124321
2832.92	0.00211775
2842.56	0.00222063
2852.2	0.00190527
2861.84	0.00138891
2871.49	0.00195617
2881.13	0.00240111
2890.77	0.00243304
2900.41	0.00248246
2910.06	0.0023007
2919.7	0.00277467
2929.34	0.002044
2938.98	0.00199406
2948.62	0.00221726
2958.27	0.00305763
2967.91	0.00226703
2977.55	0.0017587
2987.2	0.00105236
2996.84	0.00161408
3006.48	0.00166765
3016.12	0.00111486
3025.76	0.00122891
3035.41	0.00111505
3045.05	0.00137591
3054.69	0.00191352
3064.33	0.0020907
3073.98	0.00191785
3083.62	0.00232809
3093.26	0.00156145
3102.9	0.0021683
3112.55	0.00274298
3122.19	0.00199838
3131.83	0.002299
3141.47	0.00290522
3151.11	0.00249588
3160.76	0.00222058
3170.4	0.00284112
3180.04	0.0028126
3189.68	0.00261198
3199.33	0.00289689
3208.97	0.00306567
3218.61	0.00277842
3228.25	0.00258452
3237.9	0.0025414
3247.54	0.00282862
3257.18	0.002838
3266.82	0.00214613
3276.47	0.00266107
3286.11	0.00289659
3295.75	0.00261131
3305.39	0.00273965
3315.03	0.00287883
3324.68	0.00261503
3334.32	0.00204399
3343.96	0.00270546
3353.6	0.00275579
3363.25	0.00280938
3372.89	0.00262407
3382.53	0.00233979
3392.17	0.00262376
3401.82	0.00221156
3411.46	0.00210497
3421.1	0.00184838
3430.74	0.001358
3440.39	0.00215878
3450.03	0.00256018
3459.67	0.00211704
3469.31	0.00280284
3478.95	0.00215181
3488.6	0.00138299
3498.24	0.00220332
3507.88	0.00126255
3517.52	0.00162708
3527.17	0.00183197
3536.81	0.00182947
3546.45	0.00214637
3556.09	0.00174637
3565.74	0.00151279
3575.38	0.00150976
3585.02	0.00112686
3594.66	0.000973754
3604.3	0.000521616
3613.95	0.00156716
3623.59	0.0010902
3633.23	0.00147804
3642.87	0.00103042
3652.52	0.000465763
3662.16	-0.000421365
3671.8	0.000780407
3681.44	0.00104841
3691.09	0.00135187
3700.73	0.00151777
3710.37	0.00130012
3720.01	-0.000120913
3729.66	0.000484253
3739.3	2.67622e-05
3748.94	0.00148943
3758.58	0.000157671
3768.22	-0.000230594
3777.87	-0.00104826
3787.51	-0.00123592
3797.15	-0.000565819
3806.79	0.000584232
3816.44	0.00122022
3826.08	-0.000869691
3835.72	0.000141842
3845.36	-0.000821226
3855.01	0.000419652
3864.65	0.000147906
3874.29	-0.000352726
3883.93	-0.000160598
3893.57	-0.000311659
3903.22	-0.000439016
3912.86	3.87654e-05
3922.5	-0.000702854
3932.14	-0.000207666
3941.79	-0.00122322
3951.43	-0.00107078
3961.07	-0.000864564
3970.71	-0.000965554
3980.36	-0.00152801
3990	-0.000722613
3999.64	-0.00192345
