Measurement: Infrared, Infrared Data Processed
Mineral: Beryl
Rruff sample: R050121
Ideal chemistry: Be_3_Al_2_Si_6_O_18_
Locality: Cruziero mine, San Jose, Minas Gerais, Brazil
Source: Carlos and Paulo Vasconcelos
Description: Light blue fragment, variety aquamarine
Measured chemistry: (Be_0.96_Li_0.04_)_3_Al_2.00_Si_6.00_O_18_Î‡Na_0.09_Mg_0.03_
x	intensity
399.193	0.161058
408.835	0.18256
418.477	0.212461
428.12	0.232771
437.762	0.224855
447.404	0.195592
457.047	0.163469
466.689	0.147208
476.331	0.160614
485.974	0.188512
495.616	0.188075
505.258	0.13281
514.901	0.192244
524.543	0.187168
534.185	0.155502
543.828	0.109579
553.47	0.0739705
563.112	0.0516401
572.755	0.0589953
582.397	0.0997378
592.039	0.151086
601.682	0.0841441
611.324	0.042207
620.966	0.039742
630.609	0.046106
640.251	0.0699811
649.893	0.119463
659.536	0.11553
669.178	0.16734
678.82	0.19401
688.463	0.14637
698.105	0.0987087
707.747	0.0760592
717.39	0.0804679
727.032	0.0972246
736.674	0.113144
746.317	0.110286
755.959	0.0901064
765.601	0.0702593
775.244	0.0694298
784.886	0.085527
794.528	0.115459
804.171	0.139459
813.813	0.126559
823.455	0.0992715
833.098	0.0751685
842.74	0.0623509
852.382	0.0596324
862.025	0.064682
871.667	0.0752062
881.309	0.0913187
890.952	0.112156
900.594	0.137904
910.236	0.167323
919.879	0.194686
929.521	0.215845
939.163	0.230658
948.806	0.239456
958.448	0.232591
968.09	0.201841
977.733	0.164981
987.375	0.132449
997.017	0.109413
1006.66	0.108343
1016.3	0.115249
1025.94	0.0985082
1035.59	0.0773907
1045.23	0.0638318
1054.87	0.0569166
1064.51	0.0524004
1074.16	0.045762
1083.8	0.039269
1093.44	0.0337205
1103.08	0.0317144
1112.72	0.032649
1122.37	0.0369322
1132.01	0.045857
1141.65	0.0615529
1151.3	0.0714662
1160.94	0.0810723
1170.58	0.105944
1180.22	0.128318
1189.86	0.147445
1199.51	0.166167
1209.15	0.14849
1218.79	0.121814
1228.43	0.0976825
1238.08	0.0768601
1247.72	0.0594046
1257.36	0.0440698
1267	0.0310888
1276.64	0.0195962
1286.29	0.0104272
1295.93	0.00729676
1305.57	0.00597319
1315.21	0.00504423
1324.86	0.00442386
1334.5	0.00417832
1344.14	0.00372216
1353.78	0.00369323
1363.43	0.00322792
1373.07	0.00294522
1382.71	0.00291034
1392.35	0.0028524
1401.99	0.00299124
1411.64	0.00287203
1421.28	0.00255549
1430.92	0.00285052
1440.57	0.00273986
1450.21	0.00290345
1459.85	0.0024031
1469.49	0.00229718
1479.13	0.00237958
1488.78	0.00184101
1498.42	0.00168059
1508.06	0.000885577
1517.7	0.00128516
1527.35	0.00142007
1536.99	0.00167949
1546.63	0.00305063
1556.27	0.00155923
1565.91	0.00225501
1575.56	0.00134781
1585.2	0.00237726
1594.84	0.00308062
1604.48	0.00285449
1614.13	0.00259326
1623.77	0.00357482
1633.41	0.00504771
1643.05	0.0027618
1652.7	0.000276675
1662.34	0.00199296
1671.98	0.0016787
1681.62	0.00158404
1691.27	0.00184053
1700.91	0.000402123
1710.55	0.00190531
1720.19	0.00146357
1729.84	0.00113262
1739.48	0.000605658
1749.12	0.000788215
1758.76	0.000985819
1768.4	0.000926071
1778.05	0.00120843
1787.69	0.00124462
1797.33	0.00132505
1806.97	0.000968498
1816.62	0.000453136
1826.26	0.000651076
1835.9	-3.82439e-06
1845.54	-0.000141839
1855.18	0.000288371
1864.83	-0.000211542
1874.47	-0.000804011
1884.11	-0.00101489
1893.75	-0.0012163
1903.4	-0.000878078
1913.04	-0.000978963
1922.68	-0.000516019
1932.32	-0.000141113
1941.97	-0.000189104
1951.61	-0.000560538
1961.25	-4.76181e-05
1970.89	-0.000613413
1980.54	0.00352808
1990.18	0.000184462
1999.82	0.00162133
2009.46	0.000606871
2019.11	0.00017215
2028.75	-0.000632675
2038.39	0.00130965
2048.03	0.0021724
2057.67	0.00187861
2067.32	0.00136533
2076.96	0.00119252
2086.6	0.000650506
2096.24	0.00107946
2105.89	0.00202228
2115.53	0.00107934
2125.17	0.000475916
2134.81	0.00103726
2144.45	0.00168132
2154.1	0.00241766
2163.74	0.00643659
2173.38	0.00509637
2183.02	0.0057168
2192.67	0.00538468
2202.31	0.00643893
2211.95	0.0041606
2221.59	0.00446091
2231.24	0.00397064
2240.88	0.00508925
2250.52	0.00363993
2260.16	0.00322715
2269.8	0.00332098
2279.45	0.0036274
2289.09	0.00300127
2298.73	0.00206178
2308.38	0.00166111
2318.02	0.00225216
2327.66	0.00166832
2337.3	0.000836547
2346.94	0.00109899
2356.59	0.000753199
2366.23	0.000263512
2375.87	0.000381435
2385.51	-0.000583174
2395.16	5.34503e-05
2404.8	-0.00083905
2414.44	-0.000107322
2424.08	-2.00871e-05
2433.72	0.000552678
2443.37	0.000550982
2453.01	0.000846591
2462.65	0.0016353
2472.29	0.00231768
2481.94	0.00124318
2491.58	0.00142727
2501.22	0.00145234
2510.86	0.00207627
2520.51	0.00207551
2530.15	0.00235082
2539.79	0.002699
2549.43	0.00243779
2559.07	0.00330361
2568.72	0.00312153
2578.36	0.00386498
2588	0.00364306
2597.64	0.00331393
2607.29	0.00430891
2616.93	0.00402963
2626.57	0.00396126
2636.21	0.00368545
2645.86	0.00364866
2655.5	0.00357217
2665.14	0.00282102
2674.78	0.00303278
2684.43	0.00299844
2694.07	0.00317825
2703.71	0.00286928
2713.35	0.00312634
2722.99	0.00335727
2732.64	0.00339408
2742.28	0.00352388
2751.92	0.00363482
2761.56	0.0037986
2771.21	0.00356636
2780.85	0.00389582
2790.49	0.00359317
2800.13	0.00404493
2809.78	0.0037352
2819.42	0.00390765
2829.06	0.00387307
2838.7	0.00367071
2848.34	0.00343812
2857.99	0.00356948
2867.63	0.00364731
2877.27	0.00385462
2886.91	0.00402352
2896.56	0.00342517
2906.2	0.00408144
2915.84	0.00354109
2925.48	0.00348813
2935.13	0.00363504
2944.77	0.00329893
2954.41	0.00332001
2964.05	0.00285139
2973.7	0.00271328
2983.34	0.00344811
2992.98	0.00323609
3002.62	0.00321449
3012.26	0.0032462
3021.91	0.00368589
3031.55	0.00328927
3041.19	0.00347097
3050.83	0.00377472
3060.48	0.00372113
3070.12	0.00309549
3079.76	0.00325704
3089.4	0.00379401
3099.05	0.00375061
3108.69	0.00381873
3118.33	0.00354996
3127.97	0.00401896
3137.61	0.00397966
3147.26	0.00445085
3156.9	0.00444967
3166.54	0.00461824
3176.18	0.00387871
3185.83	0.00357382
3195.47	0.00449464
3205.11	0.00476835
3214.75	0.00446734
3224.4	0.0038852
3234.04	0.00473081
3243.68	0.00474486
3253.32	0.00334263
3262.97	0.00410123
3272.61	0.00467013
3282.25	0.00381597
3291.89	0.00287995
3301.53	0.00443128
3311.18	0.00407392
3320.82	0.0032322
3330.46	0.00362205
3340.1	0.003902
3349.75	0.00367455
3359.39	0.00332695
3369.03	0.0034986
3378.67	0.003034
3388.32	0.00393712
3397.96	0.00375002
3407.6	0.00510713
3417.24	0.00411349
3426.89	0.00416802
3436.53	0.00327468
3446.17	0.00374675
3455.81	0.00442507
3465.45	0.00342589
3475.1	0.00419104
3484.74	0.00400065
3494.38	0.00394882
3504.02	0.00356297
3513.67	0.00322292
3523.31	0.00304237
3532.95	0.00379434
3542.59	0.00379659
3552.24	0.00278953
3561.88	0.00272328
3571.52	0.00296209
3581.16	0.00397448
3590.8	0.00426503
3600.45	0.00413202
3610.09	0.00369703
3619.73	0.00247287
3629.37	0.00322316
3639.02	0.00373694
3648.66	0.00380188
3658.3	0.00408832
3667.94	0.00332011
3677.59	0.00454173
3687.23	0.0051041
3696.87	0.00848569
3706.51	0.004267
3716.16	0.00372934
3725.8	0.00285663
3735.44	0.00350705
3745.08	0.00233899
3754.72	0.00153353
3764.37	0.00339892
3774.01	0.000761865
3783.65	0.00114417
3793.29	0.00225703
3802.94	0.00160123
3812.58	0.00274273
3822.22	0.00337859
3831.86	0.00269212
3841.51	0.00203945
3851.15	0.00293755
3860.79	0.00225917
3870.43	0.002836
3880.07	0.00153083
3889.72	0.00304048
3899.36	0.0020688
3909	0.00145494
3918.64	0.00284281
3928.29	0.00182222
3937.93	0.00140308
3947.57	0.00205652
3957.21	0.00338547
3966.86	0.0018737
3976.5	0.00313009
3986.14	0.00254241
3995.78	0.00164989
