Measurement: Infrared, Infrared Data Processed
Mineral: Beryl
Rruff sample: R050121
Ideal chemistry: Be_3_Al_2_Si_6_O_18_
Locality: Cruziero mine, San Jose, Minas Gerais, Brazil
Source: Carlos and Paulo Vasconcelos
Description: Light blue fragment, variety aquamarine
Measured chemistry: (Be_0.96_Li_0.04_)_3_Al_2.00_Si_6.00_O_18_Î‡Na_0.09_Mg_0.03_
x	intensity
50.1401	0.0215485
52.0686	0.0184085
53.9971	0.0161535
55.9255	0.0180148
57.854	0.0267267
59.7825	0.0278236
61.7109	0.022868
63.6394	0.0281893
65.5679	0.0268699
67.4963	0.0255483
69.4248	0.0287995
71.3533	0.0309548
73.2817	0.0297839
75.2102	0.0301214
77.1387	0.0309698
79.0671	0.0331298
80.9956	0.0329593
82.9241	0.0363015
84.8525	0.0384023
86.781	0.0371295
88.7095	0.0370858
90.6379	0.0400586
92.5664	0.040322
94.4948	0.0395474
96.4233	0.0418232
98.3518	0.0449977
100.28	0.0445911
102.209	0.0448377
104.137	0.0458531
106.066	0.0480878
107.994	0.0488485
109.923	0.0487569
111.851	0.0481278
113.779	0.0488766
115.708	0.0502105
117.636	0.0508715
119.565	0.0517987
121.493	0.0527095
123.422	0.0524338
125.35	0.0529961
127.279	0.0532333
129.207	0.0543926
131.136	0.055359
133.064	0.0564454
134.993	0.0554957
136.921	0.0555983
138.85	0.0567231
140.778	0.0580096
142.707	0.0586905
144.635	0.0598698
146.563	0.0603615
148.492	0.0606251
150.42	0.0605264
152.349	0.0619848
154.277	0.062195
156.206	0.0619827
158.134	0.0623151
160.063	0.0624144
161.991	0.0620389
163.92	0.0626246
165.848	0.0627124
167.777	0.0630276
169.705	0.0636198
171.633	0.0641127
173.562	0.0643227
175.49	0.0649986
177.419	0.0652358
179.347	0.0658375
181.276	0.0664988
183.204	0.0668081
185.133	0.0674266
187.061	0.0681157
188.99	0.0683385
190.918	0.0693228
192.847	0.0703782
194.775	0.0710919
196.704	0.0713505
198.632	0.0723769
200.56	0.0736527
202.489	0.0750688
204.417	0.0762269
206.346	0.0760715
208.274	0.0720778
210.203	0.0655593
212.131	0.0611124
214.06	0.0603211
215.988	0.0617763
217.917	0.0641626
219.845	0.0658396
221.774	0.0668963
223.702	0.0679672
225.631	0.0694924
227.559	0.0704084
229.488	0.0709868
231.416	0.0724975
233.344	0.0741616
235.273	0.0750007
237.201	0.0763571
239.13	0.0777596
241.058	0.0790028
242.987	0.0803198
244.915	0.0816887
246.844	0.083377
248.772	0.0855655
250.701	0.0879811
252.629	0.0903315
254.558	0.0923094
256.486	0.091607
258.414	0.0842436
260.343	0.0715444
262.271	0.0607715
264.2	0.0569992
266.128	0.0586487
268.057	0.0622973
269.985	0.0653584
271.914	0.06827
273.842	0.0709731
275.771	0.0730151
277.699	0.0747561
279.628	0.0765425
281.556	0.0779269
283.485	0.0793162
285.413	0.0806569
287.341	0.0820465
289.27	0.0829104
291.198	0.0836886
293.127	0.0846855
295.055	0.085668
296.984	0.0862836
298.912	0.0866136
300.841	0.0867032
302.769	0.0873767
304.698	0.0878159
306.626	0.088454
308.555	0.0889084
310.483	0.089573
312.411	0.0906614
314.34	0.0920547
316.269	0.0927904
318.197	0.0936559
320.125	0.0947249
322.054	0.0958453
323.982	0.096582
325.911	0.0977242
327.839	0.0990676
329.768	0.100102
331.696	0.100821
333.625	0.102083
335.553	0.103702
337.482	0.105643
339.41	0.107304
341.339	0.109044
343.267	0.111191
345.195	0.113597
347.124	0.114978
349.052	0.115023
350.981	0.112778
352.909	0.111747
354.838	0.114021
356.766	0.11775
358.695	0.120907
360.623	0.123579
362.552	0.125548
364.48	0.126068
366.409	0.123962
368.337	0.119607
370.265	0.113241
372.194	0.107008
374.122	0.103116
376.051	0.102297
377.979	0.10287
379.908	0.10142
381.836	0.0982557
383.765	0.0974054
385.693	0.0986988
387.622	0.0996273
389.55	0.0993561
391.479	0.0998109
393.407	0.101884
395.336	0.105382
397.264	0.109069
399.192	0.11267
401.121	0.115983
403.049	0.119067
404.978	0.122089
406.906	0.125183
408.835	0.128083
410.763	0.131036
412.692	0.133957
414.62	0.136859
416.549	0.139657
418.477	0.142529
420.406	0.144999
422.334	0.147453
424.262	0.149982
426.191	0.152057
428.12	0.153062
430.048	0.153677
431.976	0.153924
433.905	0.153694
435.833	0.152831
437.762	0.151417
439.69	0.149386
441.619	0.147181
443.547	0.144161
445.476	0.140511
447.404	0.13672
449.333	0.133113
451.261	0.129145
453.19	0.125207
455.118	0.121246
457.046	0.11781
458.975	0.114709
460.903	0.112326
462.832	0.110297
464.76	0.108541
466.689	0.107862
468.617	0.108578
470.546	0.110002
472.474	0.111887
474.403	0.114474
476.331	0.117436
478.26	0.120829
480.188	0.124604
482.116	0.128125
484.045	0.131497
485.974	0.134992
487.902	0.13861
489.83	0.1414
491.759	0.143265
493.687	0.143118
495.616	0.139999
497.544	0.132931
499.473	0.122722
501.401	0.112038
503.33	0.106097
505.258	0.108269
507.187	0.116313
509.115	0.125307
511.043	0.132804
512.972	0.138626
514.9	0.142973
516.829	0.145947
518.757	0.147222
520.686	0.146971
522.614	0.145971
524.543	0.144372
526.471	0.142323
528.4	0.139331
530.328	0.135655
532.257	0.131598
534.185	0.127005
536.114	0.121605
538.042	0.116237
539.971	0.110289
541.899	0.104195
543.827	0.098275
545.756	0.0931997
547.684	0.0882465
549.613	0.0832823
551.541	0.0782331
553.47	0.0732923
555.398	0.0687744
557.327	0.0649417
559.255	0.0613766
561.184	0.0587829
563.112	0.0570025
565.041	0.0563423
566.969	0.0571362
568.898	0.0588073
570.826	0.0614167
572.755	0.0648468
574.683	0.0679308
576.611	0.0716078
578.54	0.0773328
580.468	0.0855461
582.397	0.0956213
584.325	0.106739
586.254	0.117799
588.182	0.126379
590.111	0.129455
592.039	0.126909
593.968	0.119993
595.896	0.110728
597.824	0.100932
599.753	0.0910985
601.682	0.0809633
603.61	0.0720124
605.538	0.064072
607.467	0.0569853
609.395	0.052311
611.324	0.0500145
613.252	0.0485283
615.181	0.0481149
617.109	0.048437
619.038	0.0495729
620.966	0.0504075
622.894	0.0516802
624.823	0.0537499
626.751	0.0560411
628.68	0.0588205
630.608	0.062082
632.537	0.0654026
634.465	0.068852
636.394	0.0730023
638.322	0.0777144
640.251	0.082926
642.179	0.089309
644.108	0.0962801
646.036	0.103023
647.965	0.109286
649.893	0.114694
651.822	0.117321
653.75	0.116136
655.678	0.112576
657.607	0.110572
659.535	0.112101
661.464	0.116731
663.392	0.122505
665.321	0.128717
667.249	0.135479
669.178	0.141997
671.106	0.147768
673.035	0.15311
674.963	0.157346
676.892	0.160009
678.82	0.159777
680.749	0.157536
682.677	0.153125
684.606	0.147181
686.534	0.140632
688.462	0.133642
690.391	0.125872
692.319	0.118539
694.248	0.111927
696.176	0.106324
698.105	0.100113
700.033	0.0956369
