Measurement: Infrared, Infrared Data Processed
Mineral: Betekhtinite
Rruff sample: R070087
Ideal chemistry: (Cu,Fe)_21_Pb_2_S_15_
Locality: Dzhezkazgan deposit, central Kazakhstan
Source: Michael Scott
Description: Aggregate of black bladed to prismatic crystals associated with quartz
Measured chemistry: (Cu_20.15_Fe_0.85_)_Σ=21_(Pb_1.80_Ag_0.11_Fe_0.09_)_Σ=2_S_15.00_
x	intensity
399.193	0.277239
408.835	0.27172
418.477	0.277124
428.12	0.275891
437.762	0.275164
447.404	0.280376
457.047	0.28072
466.689	0.284882
476.331	0.286199
485.974	0.288506
495.616	0.291204
505.258	0.293668
514.901	0.296632
524.543	0.297202
534.185	0.29737
543.828	0.301358
553.47	0.303695
563.112	0.306572
572.755	0.308803
582.397	0.309433
592.039	0.31132
601.682	0.312717
611.324	0.313461
620.966	0.316051
630.609	0.317909
640.251	0.319419
649.893	0.320239
659.536	0.321401
669.178	0.32456
678.82	0.325059
688.463	0.324748
698.105	0.326223
707.747	0.327634
717.39	0.328861
727.032	0.329946
736.674	0.332045
746.317	0.33347
755.959	0.334453
765.601	0.335862
775.244	0.337436
784.886	0.338695
794.528	0.339775
804.171	0.341231
813.813	0.343274
823.455	0.34379
833.098	0.344821
842.74	0.345761
852.382	0.346768
862.025	0.348129
871.667	0.349556
881.309	0.350718
890.952	0.352116
900.594	0.352607
910.236	0.35421
919.879	0.355045
929.521	0.356703
939.163	0.357309
948.806	0.358638
958.448	0.359426
968.09	0.360456
977.733	0.361088
987.375	0.361764
997.017	0.363089
1006.66	0.363718
1016.3	0.364196
1025.94	0.364765
1035.59	0.3657
1045.23	0.365847
1054.87	0.366343
1064.51	0.367387
1074.16	0.367957
1083.8	0.368511
1093.44	0.369067
1103.08	0.369827
1112.72	0.37078
1122.37	0.372063
1132.01	0.373606
1141.65	0.37651
1151.3	0.376809
1160.94	0.376582
1170.58	0.376774
1180.22	0.377585
1189.86	0.379084
1199.51	0.380481
1209.15	0.381222
1218.79	0.381653
1228.43	0.382272
1238.08	0.382322
1247.72	0.382859
1257.36	0.383684
1267	0.384449
1276.64	0.385174
1286.29	0.386448
1295.93	0.387206
1305.57	0.388168
1315.21	0.388835
1324.86	0.389681
1334.5	0.390744
1344.14	0.391374
1353.78	0.392087
1363.43	0.392696
1373.07	0.393433
1382.71	0.393945
1392.35	0.394658
1401.99	0.394574
1411.64	0.394532
1421.28	0.394679
1430.92	0.394898
1440.57	0.395138
1450.21	0.395114
1459.85	0.395356
1469.49	0.396011
1479.13	0.39772
1488.78	0.398521
1498.42	0.399649
1508.06	0.400903
1517.7	0.401407
1527.35	0.402207
1536.99	0.402671
1546.63	0.403081
1556.27	0.403819
1565.91	0.404266
1575.56	0.405098
1585.2	0.405182
1594.84	0.40612
1604.48	0.406628
1614.13	0.407622
1623.77	0.408473
1633.41	0.409507
1643.05	0.409784
1652.7	0.411097
1662.34	0.410883
1671.98	0.411351
1681.62	0.412102
1691.27	0.412312
1700.91	0.413475
1710.55	0.413344
1720.19	0.41379
1729.84	0.413877
1739.48	0.413449
1749.12	0.41372
1758.76	0.41538
1768.4	0.416264
1778.05	0.416821
1787.69	0.417196
1797.33	0.418129
1806.97	0.418763
1816.62	0.418067
1826.26	0.41897
1835.9	0.419505
1845.54	0.41992
1855.18	0.419737
1864.83	0.420038
1874.47	0.420077
1884.11	0.419278
1893.75	0.421759
1903.4	0.421374
1913.04	0.422281
1922.68	0.42246
1932.32	0.422616
1941.97	0.423304
1951.61	0.42416
1961.25	0.427323
1970.89	0.42553
1980.54	0.425789
1990.18	0.425351
1999.82	0.429639
2009.46	0.429882
2019.11	0.429633
2028.75	0.430116
2038.39	0.427734
2048.03	0.430589
2057.67	0.432113
2067.32	0.43218
2076.96	0.433451
2086.6	0.434716
2096.24	0.435759
2105.89	0.437362
2115.53	0.438199
2125.17	0.43784
2134.81	0.436802
2144.45	0.438349
2154.1	0.440138
2163.74	0.440214
2173.38	0.441602
2183.02	0.442224
2192.67	0.439978
2202.31	0.441929
2211.95	0.443342
2221.59	0.444593
2231.24	0.445425
2240.88	0.447357
2250.52	0.447759
2260.16	0.446235
2269.8	0.447322
2279.45	0.449321
2289.09	0.449224
2298.73	0.45013
2308.38	0.450481
2318.02	0.452091
2327.66	0.452812
2337.3	0.453437
2346.94	0.454984
2356.59	0.454441
2366.23	0.454929
2375.87	0.455159
2385.51	0.456527
2395.16	0.456618
2404.8	0.455886
2414.44	0.457811
2424.08	0.457792
2433.72	0.45798
2443.37	0.458184
2453.01	0.459023
2462.65	0.459825
2472.29	0.460538
2481.94	0.461043
2491.58	0.460919
2501.22	0.462468
2510.86	0.463013
2520.51	0.464091
2530.15	0.464309
2539.79	0.463806
2549.43	0.464222
2559.07	0.466137
2568.72	0.466863
2578.36	0.468391
2588	0.469133
2597.64	0.470024
2607.29	0.471008
2616.93	0.472503
2626.57	0.473571
2636.21	0.475303
2645.86	0.476298
2655.5	0.477287
2665.14	0.477866
2674.78	0.479209
2684.43	0.479741
2694.07	0.480453
2703.71	0.480867
2713.35	0.48188
2722.99	0.482092
2732.64	0.482986
2742.28	0.483886
2751.92	0.484025
2761.56	0.485322
2771.21	0.48534
2780.85	0.486649
2790.49	0.486917
2800.13	0.487622
2809.78	0.488031
2819.42	0.488957
2829.06	0.488322
2838.7	0.489042
2848.34	0.487172
2857.99	0.487451
2867.63	0.48841
2877.27	0.490569
2886.91	0.490655
2896.56	0.490381
2906.2	0.49019
2915.84	0.488003
2925.48	0.486646
2935.13	0.489391
2944.77	0.49095
2954.41	0.492032
2964.05	0.493004
2973.7	0.494808
2983.34	0.496318
2992.98	0.496395
3002.62	0.497661
3012.26	0.498626
3021.91	0.499323
3031.55	0.499959
3041.19	0.500221
3050.83	0.500898
3060.48	0.501488
3070.12	0.503009
3079.76	0.503166
3089.4	0.503642
3099.05	0.503891
3108.69	0.50459
3118.33	0.506456
3127.97	0.505306
3137.61	0.506875
3147.26	0.508269
3156.9	0.508409
3166.54	0.509114
3176.18	0.510062
3185.83	0.510262
3195.47	0.511029
3205.11	0.512173
3214.75	0.512406
3224.4	0.513354
3234.04	0.514189
3243.68	0.513761
3253.32	0.514815
3262.97	0.515994
3272.61	0.516229
3282.25	0.517596
3291.89	0.518812
3301.53	0.519629
3311.18	0.520088
3320.82	0.520223
3330.46	0.521213
3340.1	0.521789
3349.75	0.521377
3359.39	0.522029
3369.03	0.522686
3378.67	0.523485
3388.32	0.524455
3397.96	0.525391
3407.6	0.525243
3417.24	0.52636
3426.89	0.527201
3436.53	0.527936
3446.17	0.527761
3455.81	0.528634
3465.45	0.529707
3475.1	0.529742
3484.74	0.531386
3494.38	0.53161
3504.02	0.532624
3513.67	0.533085
3523.31	0.533426
3532.95	0.533813
3542.59	0.53532
3552.24	0.536381
3561.88	0.53594
3571.52	0.53686
3581.16	0.537718
3590.8	0.537057
3600.45	0.539274
3610.09	0.540134
3619.73	0.542043
3629.37	0.542718
3639.02	0.542944
3648.66	0.543785
3658.3	0.544581
3667.94	0.545907
3677.59	0.546283
3687.23	0.546972
3696.87	0.547362
3706.51	0.549027
3716.16	0.54903
3725.8	0.55056
3735.44	0.551045
3745.08	0.553364
3754.72	0.552816
3764.37	0.553671
3774.01	0.553414
3783.65	0.55532
3793.29	0.555056
3802.94	0.557318
3812.58	0.556736
3822.22	0.558608
3831.86	0.559417
3841.51	0.559348
3851.15	0.56055
3860.79	0.561238
3870.43	0.562168
3880.07	0.561885
3889.72	0.563057
3899.36	0.562609
3909	0.563252
3918.64	0.565616
3928.29	0.564726
3937.93	0.565906
3947.57	0.566439
3957.21	0.568848
3966.86	0.567072
3976.5	0.56904
3986.14	0.569418
3995.78	0.569126
