Measurement: Infrared, Infrared Data Processed
Mineral: Bikitaite
Rruff sample: R050160
Ideal chemistry: LiAlSi_2_O_6_H_2_O
Locality: Foote mine, Kings Mountain, Cleveland County, North Carolina, USA
Source: Jim McGlasson
Description: Colorless prismatic crystals
Measured chemistry: Li_1.00_Si_2.00_O_6_Â·1.25H_2_O ; Li not measured but estimated by stoichiometry
x	intensity
372.194	0
381.836	0.16192
391.479	0.141185
401.121	0.15086
410.763	0.151379
420.406	0.159403
430.048	0.162702
439.69	0.185118
449.333	0.190171
458.975	0.181166
468.617	0.161725
478.26	0.138792
487.902	0.113648
497.544	0.106058
507.187	0.090433
516.829	0.0795746
526.471	0.0841828
536.114	0.0813049
545.756	0.0710604
555.398	0.057968
565.041	0.0463565
574.683	0.0375888
584.325	0.0333342
593.968	0.0336639
603.61	0.0348752
613.252	0.0381305
622.895	0.0509173
632.537	0.0344574
642.179	0.0330217
651.822	0.0396719
661.464	0.0570656
671.106	0.0943601
680.749	0.14363
690.391	0.113858
700.033	0.0834199
709.676	0.0764522
719.318	0.0620968
728.96	0.0588211
738.603	0.0328304
748.245	0.02354
757.887	0.0255651
767.53	0.0305363
777.172	0.0427609
786.814	0.046582
796.457	0.0262323
806.099	0.0206411
815.741	0.0203402
825.384	0.0216723
835.026	0.0236662
844.668	0.0270888
854.311	0.0320554
863.953	0.0391313
873.595	0.0475954
883.238	0.0572275
892.88	0.070122
902.522	0.0883681
912.165	0.111317
921.807	0.139369
931.449	0.172529
941.092	0.20869
950.734	0.247002
960.376	0.26021
970.019	0.249553
979.661	0.197351
989.303	0.121631
998.946	0.0780972
1008.59	0.10921
1018.23	0.167936
1027.87	0.139415
1037.52	0.10888
1047.16	0.0915827
1056.8	0.0853176
1066.44	0.0929042
1076.08	0.11632
1085.73	0.138746
1095.37	0.130161
1105.01	0.10854
1114.65	0.0880388
1124.3	0.0761645
1133.94	0.0700917
1143.58	0.0572715
1153.22	0.0470911
1162.87	0.0408157
1172.51	0.0295124
1182.15	0.019775
1191.79	0.0146517
1201.43	0.0115923
1211.08	0.00947671
1220.72	0.00757657
1230.36	0.00585481
1240	0.00485704
1249.65	0.00394746
1259.29	0.00337294
1268.93	0.00290673
1278.57	0.00262729
1288.22	0.0025724
1297.86	0.00225543
1307.5	0.00239046
1317.14	0.00239459
1326.79	0.00259633
1336.43	0.00273184
1346.07	0.00218707
1355.71	0.00202263
1365.35	0.00190857
1375	0.00197708
1384.64	0.00194468
1394.28	0.002171
1403.92	0.00236423
1413.57	0.00248632
1423.21	0.00248571
1432.85	0.00239017
1442.49	0.00253744
1452.13	0.00233912
1461.78	0.00236233
1471.42	0.00232795
1481.06	0.0027239
1490.7	0.00263217
1500.35	0.00296743
1509.99	0.0031831
1519.63	0.00325023
1529.27	0.00349728
1538.92	0.00376081
1548.56	0.00427744
1558.2	0.00444739
1567.84	0.00464482
1577.49	0.00527286
1587.13	0.00605748
1596.77	0.00724108
1606.41	0.00875464
1616.06	0.0110847
1625.7	0.0162565
1635.34	0.0269365
1644.98	0.0274172
1654.62	0.0128093
1664.27	0.00658808
1673.91	0.00426425
1683.55	0.00342841
1693.19	0.00270219
1702.84	0.00234092
1712.48	0.0020472
1722.12	0.00171447
1731.76	0.00126055
1741.4	0.00108975
1751.05	0.000803353
1760.69	0.00133239
1770.33	0.00145011
1779.97	0.00148206
1789.62	0.00113162
1799.26	0.00166
1808.9	0.00126549
1818.54	0.0012551
1828.19	0.00123105
1837.83	0.00102887
1847.47	0.00112873
1857.11	0.00092224
1866.76	0.0010463
1876.4	0.000508047
1886.04	0.000277137
1895.68	-0.000296732
1905.33	0.00024227
1914.97	-0.000734307
1924.61	-0.00126023
1934.25	-0.00132433
1943.89	-0.00127775
1953.54	-0.00211218
1963.18	-0.00151694
1972.82	-0.00132013
1982.46	0.00193916
1992.11	0.00193602
2001.75	0.00100024
2011.39	0.000841471
2021.03	-0.000975339
2030.67	-0.00147566
2040.32	-0.00100956
2049.96	0.00110158
2059.6	2.34076e-05
2069.24	0.000756562
2078.89	0.00189003
2088.53	0.00125826
2098.17	0.000955301
2107.81	0.000932844
2117.46	0.000277384
2127.1	-0.00019556
2136.74	-0.000778885
2146.38	-0.00190772
2156.03	-0.00346702
2165.67	0.000845969
2175.31	-0.000982473
2184.95	0.00208883
2194.59	0.00132369
2204.24	0.000128185
2213.88	0.000750198
2223.52	0.00196335
2233.16	0.00147804
2242.81	0.00127278
2252.45	0.00164868
2262.09	0.00190631
2271.73	0.00320341
2281.38	0.00279742
2291.02	0.00326023
2300.66	0.00275785
2310.3	0.00281539
2319.95	0.00296189
2329.59	0.0019744
2339.23	0.00175584
2348.87	0.00197063
2358.51	0.0017307
2368.16	0.00132953
2377.8	0.00172133
2387.44	0.00169916
2397.08	0.00146118
2406.73	0.00216715
2416.37	0.00193092
2426.01	0.00243103
2435.65	0.00252361
2445.3	0.00295454
2454.94	0.00199548
2464.58	0.0018986
2474.22	0.0024339
2483.86	0.00232197
2493.51	0.00225506
2503.15	0.00185395
2512.79	0.00223229
2522.43	0.0013856
2532.08	0.00220049
2541.72	0.00248139
2551.36	0.0025757
2561	0.00310388
2570.65	0.00311104
2580.29	0.00334195
2589.93	0.00266995
2599.57	0.00300889
2609.22	0.00325239
2618.86	0.003502
2628.5	0.00343767
2638.14	0.00305493
2647.78	0.00289643
2657.43	0.00263345
2667.07	0.00181444
2676.71	0.00210795
2686.35	0.00219277
2696	0.00228772
2705.64	0.00236112
2715.28	0.00218456
2724.92	0.00267364
2734.57	0.00242949
2744.21	0.0025668
2753.85	0.00263005
2763.49	0.00244776
2773.14	0.0026365
2782.78	0.00241143
2792.42	0.00256628
2802.06	0.00262845
2811.7	0.00307882
2821.35	0.00260617
2830.99	0.00299612
2840.63	0.0024909
2850.27	0.00144277
2859.92	0.0014559
2869.56	0.00190239
2879.2	0.00227573
2888.84	0.0027465
2898.49	0.00189492
2908.13	0.00148816
2917.77	0.000602057
2927.41	-0.000795708
2937.05	0.0009003
2946.7	0.00148825
2956.34	0.00116914
2965.98	0.0016629
2975.62	0.00284917
2985.27	0.00302981
2994.91	0.00282646
3004.55	0.00333171
3014.19	0.00296257
3023.84	0.00297667
3033.48	0.00338464
3043.12	0.00437654
3052.76	0.00405667
3062.41	0.00426532
3072.05	0.00440507
3081.69	0.00398654
3091.33	0.00395351
3100.97	0.00503088
3110.62	0.0058244
3120.26	0.00490475
3129.9	0.0061353
3139.54	0.00595755
3149.19	0.00644607
3158.83	0.00659568
3168.47	0.00626658
3178.11	0.0071468
3187.76	0.00743075
3197.4	0.00852239
3207.04	0.00803156
3216.68	0.00840994
3226.32	0.00923316
3235.97	0.0100084
3245.61	0.0096493
3255.25	0.0111431
3264.89	0.010843
3274.54	0.00990256
3284.18	0.0103023
3293.82	0.0100246
3303.46	0.0107087
3313.11	0.0118162
3322.75	0.0122695
3332.39	0.0128076
3342.03	0.0129125
3351.68	0.0140324
3361.32	0.0167562
3370.96	0.0174576
3380.6	0.0193288
3390.24	0.021134
3399.89	0.0223328
3409.53	0.0224047
3419.17	0.0192631
3428.81	0.0172591
3438.46	0.0162596
3448.1	0.016424
3457.74	0.0179148
3467.38	0.0208648
3477.03	0.0208434
3486.67	0.0159875
3496.31	0.0127438
3505.95	0.0110189
3515.59	0.0105154
3525.24	0.0102375
3534.88	0.00923738
3544.52	0.0109204
3554.16	0.0131684
3563.81	0.0190196
3573.45	0.0306399
3583.09	0.0327502
3592.73	0.0155408
3602.38	0.00977477
3612.02	0.0056685
3621.66	0.00412946
3631.3	0.00359057
3640.95	0.00188249
3650.59	0.00128099
3660.23	0.000192601
3669.87	0.00160675
3679.51	0.0010054
3689.16	0.000871662
3698.8	0.00064551
3708.44	0.00137544
3718.08	0.00111086
3727.73	0.00193292
3737.37	0.00114066
3747.01	0.000811422
3756.65	0.00205709
3766.3	0.00129411
3775.94	0.00108345
3785.58	0.00144586
3795.22	0.00225538
3804.86	0.00069757
3814.51	0.000201099
3824.15	0.000665105
3833.79	0.00100955
3843.43	0.00135796
3853.08	0.00110865
3862.72	0.00166389
3872.36	0.00163825
3882	0.00103113
3891.65	0.000774756
3901.29	0.000716023
3910.93	0.000809321
3920.57	0.000773756
3930.22	0.000586369
3939.86	0.000632469
3949.5	0.00151776
3959.14	-0.00103249
3968.78	0.000578048
3978.43	0.00076381
3988.07	0.000403076
3997.71	0.000384575
