Measurement: Infrared, Infrared Data Processed
Mineral: Bikitaite
Rruff sample: R060032
Ideal chemistry: LiAlSi_2_O_6_H_2_O
Locality: Al Hyat mine, Bikita, Fort Victoria, Southern Rhodesia
Source: University of Arizona Mineral Museum
Description: A group of radiating white to colorless acicular crystals
Measured chemistry: Li_1.00_Al_1.00_Si_2.00_O_6_Â·H_2_O ; Li not measured but estimated by charge balance
x	intensity
374.123	0.21198
383.765	0.211939
393.407	0.218273
403.05	0.201332
412.692	0.22249
422.334	0.232968
431.976	0.245987
441.619	0.276772
451.261	0.273149
460.904	0.245503
470.546	0.206717
480.188	0.175396
489.83	0.142803
499.473	0.130846
509.115	0.112253
518.758	0.108774
528.4	0.114177
538.042	0.105817
547.684	0.0897371
557.327	0.074092
566.969	0.060679
576.611	0.0511704
586.254	0.0474893
595.896	0.0480639
605.538	0.0494654
615.181	0.0552047
624.823	0.0668575
634.466	0.0476151
644.108	0.0479808
653.75	0.0571123
663.393	0.0808002
673.035	0.133551
682.677	0.195875
692.319	0.143006
701.962	0.11106
711.604	0.0974871
721.246	0.0879569
730.889	0.0756784
740.531	0.0490375
750.173	0.0424802
759.816	0.0492462
769.458	0.0612748
779.101	0.0900123
788.743	0.0770277
798.385	0.0605255
808.028	0.0375966
817.67	0.0282646
827.312	0.0280319
836.955	0.0302874
846.597	0.034268
856.239	0.0397765
865.881	0.0477334
875.524	0.0578379
885.166	0.0722572
894.808	0.0916581
904.451	0.119062
914.093	0.155198
923.736	0.199717
933.378	0.257114
943.02	0.32274
952.663	0.388566
962.305	0.405845
971.947	0.359487
981.59	0.266466
991.232	0.178457
1000.87	0.14803
1010.52	0.227464
1020.16	0.278813
1029.8	0.229854
1039.44	0.197216
1049.09	0.180981
1058.73	0.178132
1068.37	0.185993
1078.01	0.213087
1087.65	0.225691
1097.3	0.19487
1106.94	0.165596
1116.58	0.137608
1126.22	0.122406
1135.87	0.107872
1145.51	0.0895237
1155.15	0.0754579
1164.79	0.0682483
1174.44	0.0506529
1184.08	0.0378976
1193.72	0.0307353
1203.36	0.0246818
1213.01	0.0181591
1222.65	0.0126857
1232.29	0.00931736
1241.93	0.00722117
1251.58	0.00581254
1261.22	0.00497071
1270.86	0.00420492
1280.5	0.0042206
1290.14	0.00372199
1299.79	0.00324113
1309.43	0.00266509
1319.07	0.00243082
1328.71	0.00209341
1338.36	0.00178677
1348	0.00137273
1357.64	0.00127814
1367.28	0.000960638
1376.92	0.000975395
1386.57	0.00102809
1396.21	0.00118109
1405.85	0.000999567
1415.49	0.00112347
1425.14	0.00130502
1434.78	0.00139135
1444.42	0.00152162
1454.06	0.00150842
1463.71	0.00165237
1473.35	0.00172084
1482.99	0.00145319
1492.63	0.00167525
1502.28	0.00190808
1511.92	0.00212354
1521.56	0.00262154
1531.2	0.00235739
1540.85	0.00298545
1550.49	0.00231511
1560.13	0.00326728
1569.77	0.00312026
1579.41	0.00342526
1589.06	0.00411042
1598.7	0.0059403
1608.34	0.00851625
1617.98	0.0125397
1627.63	0.0195164
1637.27	0.0335264
1646.91	0.0293577
1656.55	0.0125611
1666.19	0.00615843
1675.84	0.00421463
1685.48	0.00332554
1695.12	0.00307173
1704.77	0.0021812
1714.41	0.0019979
1724.05	0.00119103
1733.69	0.00118509
1743.33	0.000246989
1752.98	-0.000157543
1762.62	0.0001294
1772.26	0.000286553
1781.9	-2.69021e-05
1791.55	0.000207599
1801.19	0.000292329
1810.83	-0.000125317
1820.47	-0.000241726
1830.12	-0.000376188
1839.76	-0.000768027
1849.4	-0.000381261
1859.04	-0.000526069
1868.68	-0.000302166
1878.33	-0.00102432
1887.97	-0.00120758
1897.61	-0.00132237
1907.25	-0.000962633
1916.9	-0.0014727
1926.54	-0.00199463
1936.18	-0.0016862
1945.82	-0.00274816
1955.46	-0.00281903
1965.11	-0.00110174
1974.75	-0.000144817
1984.39	0.00150908
1994.04	0.00102146
2003.68	4.64956e-05
2013.32	0.00055436
2022.96	-0.00152518
2032.6	-0.000521949
2042.25	-0.00170655
2051.89	-0.000793962
2061.53	-0.00121991
2071.17	-0.000938164
2080.82	-0.00157571
2090.46	-0.00199037
2100.1	-0.000387052
2109.74	-0.00234691
2119.39	-0.00221253
2129.03	-0.00330859
2138.67	-0.00362399
2148.31	-0.00300887
2157.95	-0.00347482
2167.6	-0.00125056
2177.24	-0.00218377
2186.88	-0.000677382
2196.52	-4.52623e-06
2206.17	-0.000330468
2215.81	-0.00100307
2225.45	-4.44786e-05
2235.09	0.00046152
2244.74	-0.000320087
2254.38	0.00033519
2264.02	-3.0468e-05
2273.66	0.00121977
2283.3	0.000748951
2292.95	0.000452251
2302.59	0.000882201
2312.23	0.000588895
2321.87	0.00150416
2331.52	-0.000111417
2341.16	-0.000209442
2350.8	-0.000725718
2360.44	9.70815e-05
2370.09	-0.000376645
2379.73	-0.000544296
2389.37	-0.000339239
2399.01	-0.000649056
2408.66	-2.10159e-05
2418.3	-7.9536e-05
2427.94	0.000363397
2437.58	0.000266568
2447.22	0.00039287
2456.87	0.000221896
2466.51	4.56042e-05
2476.15	0.000334562
2485.79	0.000836578
2495.44	-1.1492e-05
2505.08	0.000276624
2514.72	0.00033199
2524.36	0.000523234
2534.01	0.000721678
2543.65	0.000187309
2553.29	0.000765944
2562.93	0.000799474
2572.57	0.000857987
2582.22	0.00151568
2591.86	0.000672471
2601.5	0.00122981
2611.14	0.00164451
2620.79	0.00195139
2630.43	0.00139393
2640.07	0.00187381
2649.71	0.00169554
2659.36	0.00142173
2669	0.00110658
2678.64	0.000869839
2688.28	0.0012433
2697.93	0.00100894
2707.57	0.00124277
2717.21	0.00119782
2726.85	0.00125234
2736.49	0.00154761
2746.14	0.00181029
2755.78	0.00172676
2765.42	0.00175144
2775.06	0.00222808
2784.71	0.00219572
2794.35	0.00183386
2803.99	0.00257678
2813.63	0.00231037
2823.28	0.00233078
2832.92	0.00262458
2842.56	0.0031876
2852.2	0.00321881
2861.84	0.00340949
2871.49	0.00284586
2881.13	0.00311639
2890.77	0.00339554
2900.41	0.00383732
2910.06	0.00413535
2919.7	0.00498229
2929.34	0.00516288
2938.98	0.00409197
2948.62	0.0038177
2958.27	0.00421812
2967.91	0.00396853
2977.55	0.00364088
2987.2	0.00414531
2996.84	0.00397517
3006.48	0.00418467
3016.12	0.00428457
3025.76	0.00448532
3035.41	0.00443791
3045.05	0.00483812
3054.69	0.00562127
3064.33	0.00557688
3073.98	0.0057824
3083.62	0.00654548
3093.26	0.00570137
3102.9	0.00706321
3112.55	0.00742769
3122.19	0.00828006
3131.83	0.00804493
3141.47	0.00855014
3151.11	0.00862081
3160.76	0.00922701
3170.4	0.00983998
3180.04	0.0101686
3189.68	0.0106882
3199.33	0.0107592
3208.97	0.0120912
3218.61	0.0120807
3228.25	0.012344
3237.9	0.0132377
3247.54	0.0136779
3257.18	0.0138956
3266.82	0.0142201
3276.47	0.0137237
3286.11	0.0130903
3295.75	0.0138798
3305.39	0.0137388
3315.03	0.0149303
3324.68	0.0158812
3334.32	0.017024
3343.96	0.0176
3353.6	0.019468
3363.25	0.0213854
3372.89	0.0244035
3382.53	0.0257873
3392.17	0.0295088
3401.82	0.0296682
3411.46	0.0290845
3421.1	0.0265632
3430.74	0.0239381
3440.39	0.0232539
3450.03	0.0233803
3459.67	0.0254472
3469.31	0.0280238
3478.95	0.0280042
3488.6	0.022753
3498.24	0.0180336
3507.88	0.0159006
3517.52	0.0149634
3527.17	0.0140785
3536.81	0.0142732
3546.45	0.0150843
3556.09	0.0189942
3565.74	0.0277666
3575.38	0.0431324
3585.02	0.0392875
3594.66	0.0226979
3604.3	0.0151524
3613.95	0.0122442
3623.59	0.0105015
3633.23	0.00806194
3642.87	0.00663621
3652.52	0.00492164
3662.16	0.00409309
3671.8	0.0041455
3681.44	0.00228884
3691.09	0.00376094
3700.73	0.00376271
3710.37	0.00160721
3720.01	0.00115894
3729.66	0.000131811
3739.3	0.000367924
3748.94	0.00196274
3758.58	0.000390581
3768.22	0.000823667
3777.87	7.10771e-05
3787.51	0.000609936
3797.15	0.000613709
3806.79	0.000250485
3816.44	0.00110184
3826.08	-6.71285e-05
3835.72	0.00114669
3845.36	0.000601792
3855.01	0.00109943
3864.65	0.00033549
3874.29	0.000452048
3883.93	0.000430687
3893.57	0.000104209
3903.22	0.000362705
3912.86	-0.000739794
3922.5	-0.000321859
3932.14	0.000105669
3941.79	-0.000379407
3951.43	0.000200417
3961.07	1.52956e-05
3970.71	-0.000763525
3980.36	-0.000560108
3990	0.000154107
3999.64	0.000445578
