Measurement: Infrared, Infrared Data Processed
Mineral: Bilinite
Rruff sample: R070187
Ideal chemistry: Fe^2+^Fe^3+^_2_(S^6+^O_4_)_4_22H_2_O
Locality: Runge mine, near Edgemont, Fall River County, South Dakota, USA
Source: James Shigley
Description: Colorless needles within pale green powdery efflorescence of pickeringite
x	intensity
374.123	0.147477
383.765	0.158629
393.407	0.160512
403.05	0.172629
412.692	0.177354
422.334	0.17999
431.976	0.175419
441.619	0.182833
451.261	0.187698
460.904	0.191039
470.546	0.188686
480.188	0.186685
489.83	0.190994
499.473	0.197136
509.115	0.208568
518.758	0.223081
528.4	0.233839
538.042	0.245561
547.684	0.257577
557.327	0.254124
566.969	0.239949
576.611	0.237694
586.254	0.248145
595.896	0.246432
605.538	0.229551
615.181	0.214963
624.823	0.207735
634.466	0.197519
644.108	0.175391
653.75	0.168347
663.393	0.178638
673.035	0.174566
682.677	0.170603
692.319	0.173278
701.962	0.17622
711.604	0.178096
721.246	0.177197
730.889	0.174815
740.531	0.171425
750.173	0.168286
759.816	0.165505
769.458	0.163235
779.101	0.160813
788.743	0.156497
798.385	0.153473
808.028	0.152133
817.67	0.150625
827.312	0.146419
836.955	0.144028
846.597	0.145317
856.239	0.147765
865.881	0.147432
875.524	0.145987
885.166	0.146342
894.808	0.151335
904.451	0.159929
914.093	0.172641
923.736	0.191133
933.378	0.216947
943.02	0.249435
952.663	0.285868
962.305	0.323825
971.947	0.350192
981.59	0.392429
991.232	0.418594
1000.87	0.369488
1010.52	0.331211
1020.16	0.331585
1029.8	0.309637
1039.44	0.321589
1049.09	0.345234
1058.73	0.364367
1068.37	0.387943
1078.01	0.412316
1087.65	0.421652
1097.3	0.426158
1106.94	0.405335
1116.58	0.351359
1126.22	0.298475
1135.87	0.267132
1145.51	0.239996
1155.15	0.202101
1164.79	0.16697
1174.44	0.148464
1184.08	0.142786
1193.72	0.131161
1203.36	0.114947
1213.01	0.10799
1222.65	0.0943711
1232.29	0.0728082
1241.93	0.0555424
1251.58	0.0415254
1261.22	0.0323802
1270.86	0.0288839
1280.5	0.0267112
1290.14	0.0260032
1299.79	0.0258936
1309.43	0.0259943
1319.07	0.0262525
1328.71	0.0268717
1338.36	0.0276323
1348	0.0282381
1357.64	0.0289893
1367.28	0.0298705
1376.92	0.0309581
1386.57	0.0322622
1396.21	0.0340646
1405.85	0.0358677
1415.49	0.0374495
1425.14	0.0376398
1434.78	0.0377682
1444.42	0.0384856
1454.06	0.0394237
1463.71	0.0407031
1473.35	0.043148
1482.99	0.0452638
1492.63	0.0469915
1502.28	0.0483253
1511.92	0.0494829
1521.56	0.0514888
1531.2	0.0530284
1540.85	0.0557612
1550.49	0.0585491
1560.13	0.0627585
1569.77	0.0671087
1579.41	0.0731702
1589.06	0.0813138
1598.7	0.0927926
1608.34	0.108065
1617.98	0.125698
1627.63	0.138155
1637.27	0.142569
1646.91	0.131213
1656.55	0.113635
1666.19	0.0982842
1675.84	0.0855905
1685.48	0.0745548
1695.12	0.0647163
1704.77	0.0550996
1714.41	0.047696
1724.05	0.0418488
1733.69	0.0376467
1743.33	0.0334686
1752.98	0.0321857
1762.62	0.0315124
1772.26	0.0304257
1781.9	0.0295022
1791.55	0.0287801
1801.19	0.0282565
1810.83	0.0278167
1820.47	0.0273289
1830.12	0.0272215
1839.76	0.0267361
1849.4	0.0267311
1859.04	0.0267621
1868.68	0.0261238
1878.33	0.0259111
1887.97	0.0256822
1897.61	0.0254681
1907.25	0.0256573
1916.9	0.0253278
1926.54	0.0252735
1936.18	0.0251407
1945.82	0.0253538
1955.46	0.0246651
1965.11	0.0247283
1974.75	0.0255591
1984.39	0.0256955
1994.04	0.02649
2003.68	0.025954
2013.32	0.0273439
2022.96	0.0271142
2032.6	0.0291096
2042.25	0.0302057
2051.89	0.0305526
2061.53	0.0304581
2071.17	0.0306882
2080.82	0.0317279
2090.46	0.0317781
2100.1	0.0327233
2109.74	0.0332204
2119.39	0.0327944
2129.03	0.0336639
2138.67	0.0317232
2148.31	0.0341257
2157.95	0.0337987
2167.6	0.0371106
2177.24	0.0378107
2186.88	0.0394339
2196.52	0.0415637
2206.17	0.042111
2215.81	0.0445813
2225.45	0.0442961
2235.09	0.0455727
2244.74	0.0474247
2254.38	0.0489922
2264.02	0.0509027
2273.66	0.0544875
2283.3	0.0559814
2292.95	0.0579181
2302.59	0.0607958
2312.23	0.063657
2321.87	0.0666873
2331.52	0.0685883
2341.16	0.0709676
2350.8	0.0731397
2360.44	0.0764919
2370.09	0.0783533
2379.73	0.0799638
2389.37	0.0828911
2399.01	0.0847318
2408.66	0.0881807
2418.3	0.0905134
2427.94	0.0929693
2437.58	0.0954052
2447.22	0.0976246
2456.87	0.0991212
2466.51	0.101337
2476.15	0.102494
2485.79	0.104534
2495.44	0.106081
2505.08	0.107459
2514.72	0.107685
2524.36	0.109069
2534.01	0.10967
2543.65	0.109702
2553.29	0.110904
2562.93	0.111913
2572.57	0.11195
2582.22	0.113701
2591.86	0.114942
2601.5	0.115901
2611.14	0.118202
2620.79	0.120699
2630.43	0.123236
2640.07	0.126528
2649.71	0.130299
2659.36	0.133634
2669	0.137884
2678.64	0.142729
2688.28	0.148383
2697.93	0.153642
2707.57	0.160522
2717.21	0.166575
2726.85	0.17322
2736.49	0.180958
2746.14	0.188758
2755.78	0.19705
2765.42	0.205053
2775.06	0.21353
2784.71	0.222338
2794.35	0.231213
2803.99	0.240647
2813.63	0.250017
2823.28	0.259112
2832.92	0.267837
2842.56	0.275677
2852.2	0.279626
2861.84	0.29251
2871.49	0.302984
2881.13	0.313167
2890.77	0.321529
2900.41	0.330026
2910.06	0.335782
2919.7	0.33935
2929.34	0.35007
2938.98	0.363585
2948.62	0.374687
2958.27	0.384024
2967.91	0.393942
2977.55	0.403369
2987.2	0.412506
2996.84	0.420512
3006.48	0.42826
3016.12	0.43614
3025.76	0.443045
3035.41	0.448934
3045.05	0.455079
3054.69	0.460117
3064.33	0.464201
3073.98	0.467896
3083.62	0.46942
3093.26	0.471677
3102.9	0.47258
3112.55	0.472135
3122.19	0.471493
3131.83	0.468413
3141.47	0.465698
3151.11	0.462464
3160.76	0.458161
3170.4	0.454194
3180.04	0.450081
3189.68	0.444534
3199.33	0.439235
3208.97	0.435042
3218.61	0.428577
3228.25	0.421912
3237.9	0.415844
3247.54	0.408211
3257.18	0.401007
3266.82	0.393682
3276.47	0.38618
3286.11	0.380006
3295.75	0.372368
3305.39	0.366736
3315.03	0.359741
3324.68	0.354087
3334.32	0.348219
3343.96	0.34153
3353.6	0.335417
3363.25	0.328882
3372.89	0.321082
3382.53	0.311324
3392.17	0.300986
3401.82	0.289548
3411.46	0.278851
3421.1	0.267793
3430.74	0.257941
3440.39	0.249506
3450.03	0.240792
3459.67	0.232918
3469.31	0.22586
3478.95	0.217853
3488.6	0.212262
3498.24	0.205343
3507.88	0.201812
3517.52	0.202654
3527.17	0.199931
3536.81	0.178503
3546.45	0.153318
3556.09	0.137327
3565.74	0.127797
3575.38	0.116373
3585.02	0.101487
3594.66	0.0867473
3604.3	0.0725219
3613.95	0.0589074
3623.59	0.0482517
3633.23	0.038774
3642.87	0.0319581
3652.52	0.0252507
3662.16	0.0194441
3671.8	0.0173608
3681.44	0.0145012
3691.09	0.0132141
3700.73	0.0119262
3710.37	0.0111301
3720.01	0.010298
3729.66	0.0101954
3739.3	0.00888888
3748.94	0.00925533
3758.58	0.00955485
3768.22	0.00890689
3777.87	0.00845933
3787.51	0.00851667
3797.15	0.0088417
3806.79	0.00876252
3816.44	0.00917727
3826.08	0.00929794
3835.72	0.00932696
3845.36	0.00986539
3855.01	0.0103873
3864.65	0.00956928
3874.29	0.00967707
3883.93	0.00991926
3893.57	0.00991471
3903.22	0.00925397
3912.86	0.0102855
3922.5	0.00929413
3932.14	0.00986456
3941.79	0.0108839
3951.43	0.0096023
3961.07	0.0101303
3970.71	0.00907002
3980.36	0.00958287
3990	0.00931467
3999.64	0.00883889
