Measurement: Infrared, Infrared Data Processed
Mineral: Bindheimite
Rruff sample: R050546
Ideal chemistry: Pb^2+^_2_Sb^5+^_2_O_7_
Locality: Arabia District, Pershing County, Nevada, USA
Source: University of Arizona Mineral Museum
Description: Yellow-brown coarsely fibrous massive, intimately mixed with mimetite
Measured chemistry: (Pb_1.33_Fe_0.47_Ca_0.20_)_Σ=2_(Sb^5+^_1.97_As^5+^_0.03_)_Σ=2_O_7_  ;(darker phase, with trace amounts of Na);   (Pb_4.07_Ca_0.92_Fe_0.01_)_Σ=5_((As_2.97_Sb_0.03_)_Σ=1_O_4_)_3_Cl_1.00_ (lighter phase = mimetite)
x	intensity
399.193	0.318269
408.835	0.283322
418.477	0.254509
428.12	0.230117
437.762	0.217617
447.404	0.19906
457.047	0.184031
466.689	0.170023
476.331	0.151306
485.974	0.13386
495.616	0.122623
505.258	0.116081
514.901	0.114723
524.543	0.117612
534.185	0.12701
543.828	0.138237
553.47	0.151972
563.112	0.160962
572.755	0.166573
582.397	0.172536
592.039	0.181663
601.682	0.190106
611.324	0.198603
620.966	0.204958
630.609	0.215099
640.251	0.226416
649.893	0.235254
659.536	0.240617
669.178	0.239316
678.82	0.229165
688.463	0.216281
698.105	0.19909
707.747	0.18114
717.39	0.163276
727.032	0.147385
736.674	0.133679
746.317	0.123128
755.959	0.117613
765.601	0.115989
775.244	0.117706
784.886	0.117657
794.528	0.114764
804.171	0.103876
813.813	0.0920259
823.455	0.085364
833.098	0.0767535
842.74	0.0684541
852.382	0.0630078
862.025	0.0622932
871.667	0.0666377
881.309	0.0731194
890.952	0.0823433
900.594	0.0935808
910.236	0.103233
919.879	0.110057
929.521	0.11358
939.163	0.114108
948.806	0.111454
958.448	0.107415
968.09	0.100856
977.733	0.09301
987.375	0.0833946
997.017	0.0748123
1006.66	0.0685152
1016.3	0.0645142
1025.94	0.0623591
1035.59	0.0622998
1045.23	0.0637034
1054.87	0.0647053
1064.51	0.0653131
1074.16	0.0665574
1083.8	0.0680323
1093.44	0.0663789
1103.08	0.0638153
1112.72	0.0606714
1122.37	0.0573393
1132.01	0.0544051
1141.65	0.050951
1151.3	0.047365
1160.94	0.0440891
1170.58	0.0417776
1180.22	0.0383829
1189.86	0.0357567
1199.51	0.0325499
1209.15	0.0295662
1218.79	0.0270634
1228.43	0.0252758
1238.08	0.0236748
1247.72	0.0229216
1257.36	0.022215
1267	0.0217494
1276.64	0.0221534
1286.29	0.0224234
1295.93	0.0226727
1305.57	0.0229148
1315.21	0.0236429
1324.86	0.02399
1334.5	0.024466
1344.14	0.0247079
1353.78	0.0238725
1363.43	0.0229638
1373.07	0.0239457
1382.71	0.0256551
1392.35	0.0275093
1401.99	0.0283909
1411.64	0.0289808
1421.28	0.0289333
1430.92	0.0281935
1440.57	0.0273928
1450.21	0.027445
1459.85	0.0266758
1469.49	0.0264302
1479.13	0.0285116
1488.78	0.0294093
1498.42	0.0307323
1508.06	0.0329167
1517.7	0.034881
1527.35	0.0374523
1536.99	0.0396548
1546.63	0.0422401
1556.27	0.044687
1565.91	0.0455661
1575.56	0.0458824
1585.2	0.0450212
1594.84	0.0438694
1604.48	0.0430063
1614.13	0.0438781
1623.77	0.0465478
1633.41	0.0490878
1643.05	0.0494106
1652.7	0.0489561
1662.34	0.0449424
1671.98	0.0404821
1681.62	0.0368371
1691.27	0.033398
1700.91	0.0312308
1710.55	0.0289747
1720.19	0.0272792
1729.84	0.025061
1739.48	0.0205475
1749.12	0.0213486
1758.76	0.0266748
1768.4	0.0279227
1778.05	0.0290869
1787.69	0.0293671
1797.33	0.0288604
1806.97	0.0292643
1816.62	0.0294414
1826.26	0.0294066
1835.9	0.0306909
1845.54	0.0313639
1855.18	0.031502
1864.83	0.0304892
1874.47	0.030683
1884.11	0.0322315
1893.75	0.0310408
1903.4	0.033016
1913.04	0.0323907
1922.68	0.0321221
1932.32	0.0318106
1941.97	0.0313794
1951.61	0.0327173
1961.25	0.0318845
1970.89	0.0312565
1980.54	0.0318417
1990.18	0.0357344
1999.82	0.0311125
2009.46	0.0306023
2019.11	0.035208
2028.75	0.0350404
2038.39	0.036449
2048.03	0.0386644
2057.67	0.0384801
2067.32	0.0395896
2076.96	0.0389553
2086.6	0.0388492
2096.24	0.0432489
2105.89	0.0416801
2115.53	0.0419691
2125.17	0.0409075
2134.81	0.0391936
2144.45	0.0370994
2154.1	0.0370035
2163.74	0.0480565
2173.38	0.0428364
2183.02	0.0460408
2192.67	0.0470227
2202.31	0.0460913
2211.95	0.0436282
2221.59	0.0452436
2231.24	0.0475087
2240.88	0.0472934
2250.52	0.0472357
2260.16	0.0488698
2269.8	0.0501494
2279.45	0.0499879
2289.09	0.0506813
2298.73	0.0512475
2308.38	0.0514996
2318.02	0.0524829
2327.66	0.0505585
2337.3	0.051422
2346.94	0.0509335
2356.59	0.0523119
2366.23	0.0515587
2375.87	0.0516877
2385.51	0.0526923
2395.16	0.0511057
2404.8	0.053607
2414.44	0.053007
2424.08	0.0529875
2433.72	0.0531985
2443.37	0.053768
2453.01	0.0557749
2462.65	0.0541195
2472.29	0.0557009
2481.94	0.055317
2491.58	0.055669
2501.22	0.0555854
2510.86	0.0567475
2520.51	0.0561182
2530.15	0.05698
2539.79	0.0570915
2549.43	0.0580581
2559.07	0.0600773
2568.72	0.0605052
2578.36	0.0608674
2588	0.0617119
2597.64	0.0621143
2607.29	0.0623813
2616.93	0.0629372
2626.57	0.0639634
2636.21	0.0655913
2645.86	0.0664775
2655.5	0.0666225
2665.14	0.0668932
2674.78	0.0669274
2684.43	0.0689139
2694.07	0.0708142
2703.71	0.0704645
2713.35	0.0723841
2722.99	0.0751469
2732.64	0.0745386
2742.28	0.0733036
2751.92	0.0774338
2761.56	0.078557
2771.21	0.0791044
2780.85	0.0810447
2790.49	0.0808122
2800.13	0.0841745
2809.78	0.0861248
2819.42	0.0860995
2829.06	0.0870898
2838.7	0.0891311
2848.34	0.0880681
2857.99	0.09382
2867.63	0.0950168
2877.27	0.096978
2886.91	0.0992934
2896.56	0.101199
2906.2	0.101865
2915.84	0.103262
2925.48	0.105866
2935.13	0.110548
2944.77	0.110043
2954.41	0.111698
2964.05	0.118458
2973.7	0.117738
2983.34	0.119574
2992.98	0.121669
3002.62	0.122822
3012.26	0.124807
3021.91	0.129245
3031.55	0.125737
3041.19	0.131228
3050.83	0.131334
3060.48	0.134015
3070.12	0.135483
3079.76	0.13598
3089.4	0.14208
3099.05	0.1433
3108.69	0.14362
3118.33	0.146641
3127.97	0.15082
3137.61	0.15214
3147.26	0.156799
3156.9	0.155838
3166.54	0.155266
3176.18	0.160293
3185.83	0.162251
3195.47	0.162726
3205.11	0.165
3214.75	0.166932
3224.4	0.170539
3234.04	0.169519
3243.68	0.171378
3253.32	0.171522
3262.97	0.17128
3272.61	0.174958
3282.25	0.175053
3291.89	0.172595
3301.53	0.173772
3311.18	0.173265
3320.82	0.176866
3330.46	0.176767
3340.1	0.173931
3349.75	0.171428
3359.39	0.172124
3369.03	0.172439
3378.67	0.170303
3388.32	0.167556
3397.96	0.164197
3407.6	0.163549
3417.24	0.160872
3426.89	0.157376
3436.53	0.154017
3446.17	0.15036
3455.81	0.147948
3465.45	0.143429
3475.1	0.140631
3484.74	0.136188
3494.38	0.133257
3504.02	0.124021
3513.67	0.120737
3523.31	0.116887
3532.95	0.11303
3542.59	0.105191
3552.24	0.107968
3561.88	0.0951364
3571.52	0.0900004
3581.16	0.0885362
3590.8	0.0889593
3600.45	0.0798872
3610.09	0.0789755
3619.73	0.0788826
3629.37	0.0730502
3639.02	0.069463
3648.66	0.0716593
3658.3	0.0715429
3667.94	0.0689352
3677.59	0.0668362
3687.23	0.069921
3696.87	0.0681135
3706.51	0.069233
3716.16	0.0715379
3725.8	0.0737085
3735.44	0.0707365
3745.08	0.0745489
3754.72	0.0736648
3764.37	0.0711128
3774.01	0.079712
3783.65	0.0755282
3793.29	0.0766062
3802.94	0.0794582
3812.58	0.0701673
3822.22	0.0755067
3831.86	0.0766242
3841.51	0.0790726
3851.15	0.0801081
3860.79	0.0807528
3870.43	0.0755345
3880.07	0.0817025
3889.72	0.0790692
3899.36	0.0815356
3909	0.0839864
3918.64	0.0805714
3928.29	0.0855606
3937.93	0.0810284
3947.57	0.0867388
3957.21	0.0838165
3966.86	0.0837464
3976.5	0.0874328
3986.14	0.085268
3995.78	0.0832229
