Measurement: Infrared, Infrared Data Processed
Mineral: Bixbyite-(Fe)
Rruff sample: R050395
Ideal chemistry: Fe^3+^_2_O_3_
Locality: Thomas Range, Juab County, Utah, USA
Source: Marcus Origlieri
Description: Black cube modified with octahedral corners
Measured chemistry: (Fe^3+^_1.09_Mn^3+^_0.83_Al_0.04_Ti_0.03_[box]_0.01_)_Î£=2_O_3_
x	intensity
399.193	0.287441
408.835	0.294002
418.477	0.302687
428.12	0.307515
437.762	0.301382
447.404	0.297256
457.047	0.284934
466.689	0.272895
476.331	0.259334
485.974	0.246091
495.616	0.234259
505.258	0.221187
514.901	0.204065
524.543	0.189691
534.185	0.181639
543.828	0.189279
553.47	0.194595
563.112	0.186492
572.755	0.174237
582.397	0.163559
592.039	0.152483
601.682	0.139464
611.324	0.126732
620.966	0.116004
630.609	0.109266
640.251	0.109963
649.893	0.114039
659.536	0.117438
669.178	0.112832
678.82	0.099822
688.463	0.0839762
698.105	0.071454
707.747	0.0609454
717.39	0.0539097
727.032	0.0444728
736.674	0.0380565
746.317	0.0327675
755.959	0.0304615
765.601	0.0303773
775.244	0.0327237
784.886	0.0315742
794.528	0.0331704
804.171	0.031312
813.813	0.0271603
823.455	0.0277257
833.098	0.027584
842.74	0.0292281
852.382	0.0306643
862.025	0.0311692
871.667	0.0331694
881.309	0.032015
890.952	0.0371879
900.594	0.0398676
910.236	0.043341
919.879	0.047194
929.521	0.0508857
939.163	0.0541387
948.806	0.0573732
958.448	0.0608772
968.09	0.0657101
977.733	0.0715771
987.375	0.0789816
997.017	0.0870664
1006.66	0.0945321
1016.3	0.100709
1025.94	0.105597
1035.59	0.108741
1045.23	0.104921
1054.87	0.108073
1064.51	0.111669
1074.16	0.111743
1083.8	0.111965
1093.44	0.112793
1103.08	0.115183
1112.72	0.114962
1122.37	0.114099
1132.01	0.112828
1141.65	0.112532
1151.3	0.111641
1160.94	0.11323
1170.58	0.113706
1180.22	0.112375
1189.86	0.1111
1199.51	0.110325
1209.15	0.109591
1218.79	0.109153
1228.43	0.110182
1238.08	0.111814
1247.72	0.113232
1257.36	0.114072
1267	0.114954
1276.64	0.116303
1286.29	0.11827
1295.93	0.119664
1305.57	0.120674
1315.21	0.121957
1324.86	0.123401
1334.5	0.125302
1344.14	0.127479
1353.78	0.12995
1363.43	0.131484
1373.07	0.132942
1382.71	0.13391
1392.35	0.136328
1401.99	0.139647
1411.64	0.142159
1421.28	0.144469
1430.92	0.146371
1440.57	0.14753
1450.21	0.149118
1459.85	0.150126
1469.49	0.15029
1479.13	0.149624
1488.78	0.150277
1498.42	0.152091
1508.06	0.153362
1517.7	0.155096
1527.35	0.157212
1536.99	0.158193
1546.63	0.160392
1556.27	0.162094
1565.91	0.163542
1575.56	0.165047
1585.2	0.167356
1594.84	0.168749
1604.48	0.169634
1614.13	0.170704
1623.77	0.172299
1633.41	0.172942
1643.05	0.174147
1652.7	0.174207
1662.34	0.17505
1671.98	0.175498
1681.62	0.175579
1691.27	0.175458
1700.91	0.175922
1710.55	0.176487
1720.19	0.178918
1729.84	0.181322
1739.48	0.182611
1749.12	0.180173
1758.76	0.178205
1768.4	0.17961
1778.05	0.180528
1787.69	0.180948
1797.33	0.182742
1806.97	0.183625
1816.62	0.184612
1826.26	0.185658
1835.9	0.186495
1845.54	0.187229
1855.18	0.18832
1864.83	0.189734
1874.47	0.19058
1884.11	0.190013
1893.75	0.1918
1903.4	0.193253
1913.04	0.19493
1922.68	0.194345
1932.32	0.193767
1941.97	0.195326
1951.61	0.19688
1961.25	0.199785
1970.89	0.193651
1980.54	0.198976
1990.18	0.199315
1999.82	0.20099
2009.46	0.20052
2019.11	0.199541
2028.75	0.197351
2038.39	0.203822
2048.03	0.201312
2057.67	0.206049
2067.32	0.208277
2076.96	0.207697
2086.6	0.209613
2096.24	0.210765
2105.89	0.208985
2115.53	0.210896
2125.17	0.21074
2134.81	0.209053
2144.45	0.207889
2154.1	0.207276
2163.74	0.21258
2173.38	0.213033
2183.02	0.210732
2192.67	0.210579
2202.31	0.214514
2211.95	0.21576
2221.59	0.217014
2231.24	0.219687
2240.88	0.220805
2250.52	0.219219
2260.16	0.221287
2269.8	0.221584
2279.45	0.223835
2289.09	0.225716
2298.73	0.224099
2308.38	0.227061
2318.02	0.227674
2327.66	0.228215
2337.3	0.228202
2346.94	0.228862
2356.59	0.228511
2366.23	0.227886
2375.87	0.22815
2385.51	0.229671
2395.16	0.232716
2404.8	0.231963
2414.44	0.232621
2424.08	0.232863
2433.72	0.235046
2443.37	0.235647
2453.01	0.235805
2462.65	0.237988
2472.29	0.237679
2481.94	0.236714
2491.58	0.237655
2501.22	0.240919
2510.86	0.237401
2520.51	0.241236
2530.15	0.239316
2539.79	0.240086
2549.43	0.241458
2559.07	0.242363
2568.72	0.243274
2578.36	0.243284
2588	0.244829
2597.64	0.2452
2607.29	0.247516
2616.93	0.246537
2626.57	0.248179
2636.21	0.249323
2645.86	0.248401
2655.5	0.250507
2665.14	0.250595
2674.78	0.250779
2684.43	0.250825
2694.07	0.251915
2703.71	0.25227
2713.35	0.252264
2722.99	0.253123
2732.64	0.253893
2742.28	0.254538
2751.92	0.254299
2761.56	0.255978
2771.21	0.25776
2780.85	0.256244
2790.49	0.256313
2800.13	0.258014
2809.78	0.258092
2819.42	0.260472
2829.06	0.260113
2838.7	0.262361
2848.34	0.262433
2857.99	0.255029
2867.63	0.255352
2877.27	0.254723
2886.91	0.259193
2896.56	0.257992
2906.2	0.260951
2915.84	0.262231
2925.48	0.253216
2935.13	0.251859
2944.77	0.253448
2954.41	0.257162
2964.05	0.25052
2973.7	0.245426
2983.34	0.255248
2992.98	0.258613
3002.62	0.260301
3012.26	0.263813
3021.91	0.264071
3031.55	0.26549
3041.19	0.266113
3050.83	0.268026
3060.48	0.269745
3070.12	0.270143
3079.76	0.270105
3089.4	0.2698
3099.05	0.272327
3108.69	0.271917
3118.33	0.271959
3127.97	0.271791
3137.61	0.272467
3147.26	0.272648
3156.9	0.273406
3166.54	0.27265
3176.18	0.274334
3185.83	0.273441
3195.47	0.273923
3205.11	0.273462
3214.75	0.274046
3224.4	0.274769
3234.04	0.274216
3243.68	0.274882
3253.32	0.27614
3262.97	0.274948
3272.61	0.275433
3282.25	0.277467
3291.89	0.276364
3301.53	0.276545
3311.18	0.273805
3320.82	0.276332
3330.46	0.275193
3340.1	0.273563
3349.75	0.279951
3359.39	0.278295
3369.03	0.278741
3378.67	0.281017
3388.32	0.28178
3397.96	0.277077
3407.6	0.278587
3417.24	0.279346
3426.89	0.282331
3436.53	0.2841
3446.17	0.285431
3455.81	0.289405
3465.45	0.287428
3475.1	0.289871
3484.74	0.289429
3494.38	0.289656
3504.02	0.289116
3513.67	0.292296
3523.31	0.290672
3532.95	0.297607
3542.59	0.290916
3552.24	0.296062
3561.88	0.293423
3571.52	0.298951
3581.16	0.29785
3590.8	0.299108
3600.45	0.299779
3610.09	0.298473
3619.73	0.300295
3629.37	0.304908
3639.02	0.300784
3648.66	0.300753
3658.3	0.303016
3667.94	0.304461
3677.59	0.302449
3687.23	0.298
3696.87	0.309283
3706.51	0.308996
3716.16	0.307932
3725.8	0.301628
3735.44	0.306125
3745.08	0.303193
3754.72	0.303611
3764.37	0.30877
3774.01	0.308706
3783.65	0.308167
3793.29	0.307317
3802.94	0.306273
3812.58	0.308947
3822.22	0.31441
3831.86	0.309601
3841.51	0.309235
3851.15	0.310741
3860.79	0.315521
3870.43	0.314377
3880.07	0.312549
3889.72	0.321667
3899.36	0.316705
3909	0.319277
3918.64	0.315552
3928.29	0.318899
3937.93	0.320543
3947.57	0.314785
3957.21	0.315738
3966.86	0.318406
3976.5	0.323319
3986.14	0.326968
3995.78	0.324599
