Measurement: Infrared, Infrared Data Processed
Mineral: Bobdownsite
Rruff sample: R050109
Ideal chemistry: Ca_9_Mg(PO_4_)_6_(PO_3_F)
Locality: Big Fish River, Yukon Territory, Canada
Source: Rock Currier
Description: Colorless hexagonal tabular crystals, type sample
Measured chemistry: (Ca_8.76_Na_0.24_)_Σ=9_(Mg_0.72_Fe^3+^_0.13_Al_0.11_Fe^2+^_0.04_)_Σ=1_(P_1.00_O_4_)_6_(P_1.00_O_3_F_1.00_); Fe^2+^ and Fe^3+^ by charge balance
x	intensity
399.193	0.0394291
408.835	0.0340394
418.477	0.033511
428.12	0.0300032
437.762	0.0242626
447.404	0.0204275
457.047	0.019529
466.689	0.0212151
476.331	0.0223055
485.974	0.0274596
495.616	0.0258945
505.258	0.0291774
514.901	0.0449882
524.543	0.0731669
534.185	0.143305
543.828	0.188898
553.47	0.207003
563.112	0.132083
572.755	0.0676547
582.397	0.0507963
592.039	0.105034
601.682	0.134149
611.324	0.0920804
620.966	0.0667572
630.609	0.0246709
640.251	0.0133569
649.893	0.0113366
659.536	0.00902931
669.178	0.00933126
678.82	0.0094818
688.463	0.010138
698.105	0.0113012
707.747	0.0129072
717.39	0.0139625
727.032	0.0152365
736.674	0.0155452
746.317	0.0156045
755.959	0.0162025
765.601	0.0169906
775.244	0.0180299
784.886	0.0200817
794.528	0.0220424
804.171	0.0242062
813.813	0.0271157
823.455	0.0293689
833.098	0.0333722
842.74	0.0379026
852.382	0.0444462
862.025	0.0506049
871.667	0.0558534
881.309	0.063902
890.952	0.0760547
900.594	0.0944652
910.236	0.120042
919.879	0.159078
929.521	0.144791
939.163	0.162417
948.806	0.202682
958.448	0.206631
968.09	0.217954
977.733	0.289041
987.375	0.321195
997.017	0.275144
1006.66	0.267666
1016.3	0.287326
1025.94	0.26531
1035.59	0.225823
1045.23	0.231728
1054.87	0.260221
1064.51	0.234117
1074.16	0.204863
1083.8	0.158119
1093.44	0.140385
1103.08	0.131606
1112.72	0.134287
1122.37	0.137526
1132.01	0.134414
1141.65	0.0939331
1151.3	0.0517139
1160.94	0.0280702
1170.58	0.0161448
1180.22	0.0113326
1189.86	0.00969379
1199.51	0.00788609
1209.15	0.0055628
1218.79	0.00350977
1228.43	0.00202002
1238.08	0.000906742
1247.72	0.00100923
1257.36	0.000600679
1267	0.000337385
1276.64	0.00036323
1286.29	0.000255065
1295.93	0.00034256
1305.57	0.000479628
1315.21	0.000281915
1324.86	0.000447236
1334.5	0.000451548
1344.14	0.000702719
1353.78	0.000970639
1363.43	0.00113316
1373.07	0.00119312
1382.71	0.00120924
1392.35	0.00162246
1401.99	0.00259511
1411.64	0.00471935
1421.28	0.00486142
1430.92	0.00485691
1440.57	0.00432556
1450.21	0.00282744
1459.85	0.00211697
1469.49	0.00166083
1479.13	0.00173069
1488.78	0.00205114
1498.42	0.00228406
1508.06	0.00268403
1517.7	0.00243548
1527.35	0.00256218
1536.99	0.0030583
1546.63	0.00281935
1556.27	0.00323663
1565.91	0.00279114
1575.56	0.00324947
1585.2	0.0028182
1594.84	0.00324515
1604.48	0.00313923
1614.13	0.00326757
1623.77	0.00324047
1633.41	0.003425
1643.05	0.00345728
1652.7	0.00462461
1662.34	0.0034269
1671.98	0.00301063
1681.62	0.00326996
1691.27	0.00300334
1700.91	0.00344285
1710.55	0.00286884
1720.19	0.00264151
1729.84	0.00225387
1739.48	0.00211813
1749.12	0.00205157
1758.76	0.00212393
1768.4	0.00210624
1778.05	0.00229619
1787.69	0.00218187
1797.33	0.00201474
1806.97	0.00197302
1816.62	0.00184495
1826.26	0.0022599
1835.9	0.00272797
1845.54	0.00215863
1855.18	0.00248525
1864.83	0.00252268
1874.47	0.00213686
1884.11	0.0021621
1893.75	0.00205275
1903.4	0.00233974
1913.04	0.00258553
1922.68	0.00206193
1932.32	0.00189372
1941.97	0.00289124
1951.61	0.00116238
1961.25	0.000782474
1970.89	0.00188506
1980.54	0.00342685
1990.18	0.0019728
1999.82	0.00098262
2009.46	0.00191473
2019.11	-0.000669777
2028.75	-0.000159739
2038.39	0.000398539
2048.03	0.00199029
2057.67	0.00136258
2067.32	0.00159483
2076.96	0.002648
2086.6	0.000489449
2096.24	0.00101464
2105.89	0.00154438
2115.53	0.0018781
2125.17	0.00065831
2134.81	-0.000172842
2144.45	0.00090654
2154.1	0.000734705
2163.74	0.00470388
2173.38	0.0035268
2183.02	0.00308343
2192.67	0.00409752
2202.31	0.00362881
2211.95	0.00352063
2221.59	0.00420102
2231.24	0.00361017
2240.88	0.00385979
2250.52	0.00346789
2260.16	0.00405816
2269.8	0.0048192
2279.45	0.00432586
2289.09	0.00595019
2298.73	0.00556768
2308.38	0.00610915
2318.02	0.00684656
2327.66	0.00674656
2337.3	0.0068783
2346.94	0.00674448
2356.59	0.00753374
2366.23	0.00817532
2375.87	0.00689856
2385.51	0.00617862
2395.16	0.00617832
2404.8	0.00627308
2414.44	0.00626846
2424.08	0.00633822
2433.72	0.0070336
2443.37	0.00624912
2453.01	0.00623088
2462.65	0.007068
2472.29	0.0061186
2481.94	0.00669965
2491.58	0.00674499
2501.22	0.00676746
2510.86	0.00644473
2520.51	0.00604763
2530.15	0.00679497
2539.79	0.0063207
2549.43	0.0067452
2559.07	0.0064376
2568.72	0.0062795
2578.36	0.00683933
2588	0.00710414
2597.64	0.00715508
2607.29	0.00610635
2616.93	0.00657787
2626.57	0.00723694
2636.21	0.00738673
2645.86	0.00673408
2655.5	0.00691968
2665.14	0.00709484
2674.78	0.00659888
2684.43	0.00697343
2694.07	0.0072678
2703.71	0.00726675
2713.35	0.00766938
2722.99	0.00844168
2732.64	0.00846463
2742.28	0.00920565
2751.92	0.00951085
2761.56	0.00970078
2771.21	0.0101353
2780.85	0.0103786
2790.49	0.0104021
2800.13	0.0102916
2809.78	0.0111106
2819.42	0.0117305
2829.06	0.0118566
2838.7	0.0119345
2848.34	0.0118878
2857.99	0.0123128
2867.63	0.0127536
2877.27	0.0120729
2886.91	0.0122024
2896.56	0.0122668
2906.2	0.0122707
2915.84	0.012725
2925.48	0.0132841
2935.13	0.0127665
2944.77	0.0122072
2954.41	0.0119178
2964.05	0.0105307
2973.7	0.0109824
2983.34	0.00961387
2992.98	0.0095072
3002.62	0.00876961
3012.26	0.00923094
3021.91	0.00858851
3031.55	0.0083065
3041.19	0.00810886
3050.83	0.00859826
3060.48	0.00762949
3070.12	0.00792041
3079.76	0.00764817
3089.4	0.00656167
3099.05	0.00651058
3108.69	0.00676346
3118.33	0.0067689
3127.97	0.00631332
3137.61	0.00619923
3147.26	0.00584272
3156.9	0.00613181
3166.54	0.00566493
3176.18	0.00546731
3185.83	0.00518492
3195.47	0.00486137
3205.11	0.00420241
3214.75	0.00460981
3224.4	0.00461886
3234.04	0.00425283
3243.68	0.00374025
3253.32	0.00340246
3262.97	0.00282024
3272.61	0.0030881
3282.25	0.00220764
3291.89	0.00296399
3301.53	0.00299367
3311.18	0.00177474
3320.82	0.00157342
3330.46	0.00216245
3340.1	0.00220844
3349.75	0.00104441
3359.39	0.0023037
3369.03	0.00103212
3378.67	0.00147659
3388.32	0.00124478
3397.96	0.000112544
3407.6	0.000913596
3417.24	-0.000237215
3426.89	-0.000167079
3436.53	0.00106479
3446.17	0.000490698
3455.81	0.000524329
3465.45	-0.000827195
3475.1	-0.000555617
3484.74	-5.73507e-05
3494.38	-0.00152963
3504.02	-0.00243029
3513.67	-0.00172061
3523.31	-0.000338739
3532.95	-0.00149649
3542.59	-0.00257333
3552.24	-0.00153694
3561.88	-0.00212865
3571.52	-0.00324442
3581.16	-0.000818947
3590.8	-0.00232983
3600.45	-0.00101108
3610.09	-0.0016764
3619.73	-0.00193919
3629.37	-0.00144934
3639.02	-0.00344767
3648.66	-0.000504569
3658.3	-0.00279895
3667.94	-0.00187071
3677.59	-0.000319089
3687.23	-0.00271615
3696.87	-0.00319277
3706.51	-0.00290951
3716.16	-0.00310772
3725.8	-0.00366018
3735.44	-0.0013223
3745.08	-0.00116147
3754.72	-0.00283288
3764.37	-0.00407276
3774.01	-0.00541524
3783.65	-0.00577169
3793.29	-0.00403404
3802.94	-0.00402155
3812.58	-0.00364319
3822.22	-0.00156097
3831.86	-0.00322549
3841.51	-0.00317858
3851.15	-0.00367208
3860.79	-0.00408506
3870.43	-0.00340489
3880.07	-0.00451816
3889.72	-0.00511549
3899.36	-0.00314971
3909	-0.00353153
3918.64	-0.00302011
3928.29	-0.00280435
3937.93	-0.00540642
3947.57	-0.00644762
3957.21	-0.0053812
3966.86	-0.00389879
3976.5	-0.00438424
3986.14	-0.00642043
3995.78	-0.00454192
