Measurement: Infrared, Infrared Data Processed
Mineral: Boleite
Rruff sample: R050022
Ideal chemistry: KAg^1+^_9_Pb^2+^_26_Cu^2+^_24_Cl_62_(OH)_48_
Locality: Amelia mine, Boleo, Baja California, Mexico
Source: Eugene Schlepp
Description: Dark blue colored interpenetrating cubes
x	intensity
399.193	0
408.835	0.0532896
418.477	0.0707546
428.12	0.10656
437.762	0.155785
447.404	0.140793
457.047	0.129198
466.689	0.119151
476.331	0.100928
485.974	0.0719566
495.616	0.0671946
505.258	0.0861552
514.901	0.110478
524.543	0.0733088
534.185	0.0441826
543.828	0.0338622
553.47	0.0310115
563.112	0.0270138
572.755	0.025368
582.397	0.0258364
592.039	0.0272975
601.682	0.0294295
611.324	0.0306358
620.966	0.0323669
630.609	0.035071
640.251	0.0386113
649.893	0.0434057
659.536	0.049428
669.178	0.0580345
678.82	0.0676681
688.463	0.0820128
698.105	0.106547
707.747	0.142899
717.39	0.140799
727.032	0.0962481
736.674	0.073315
746.317	0.0655182
755.959	0.061386
765.601	0.0594501
775.244	0.0579501
784.886	0.0581202
794.528	0.0597832
804.171	0.0629819
813.813	0.0654958
823.455	0.0652212
833.098	0.0635742
842.74	0.0618532
852.382	0.0633421
862.025	0.0680097
871.667	0.0805964
881.309	0.115111
890.952	0.105485
900.594	0.0682439
910.236	0.0513801
919.879	0.0469281
929.521	0.048301
939.163	0.052123
948.806	0.0590764
958.448	0.0755509
968.09	0.116417
977.733	0.117584
987.375	0.0653243
997.017	0.0562831
1006.66	0.057903
1016.3	0.0599143
1025.94	0.0568034
1035.59	0.0551216
1045.23	0.0553155
1054.87	0.0542893
1064.51	0.0506935
1074.16	0.0504145
1083.8	0.0509204
1093.44	0.0510741
1103.08	0.0516514
1112.72	0.0517803
1122.37	0.0539332
1132.01	0.0551886
1141.65	0.0540384
1151.3	0.0546631
1160.94	0.0549897
1170.58	0.0533167
1180.22	0.0554609
1189.86	0.0565308
1199.51	0.0552877
1209.15	0.0557338
1218.79	0.0576506
1228.43	0.0581254
1238.08	0.0583323
1247.72	0.0581196
1257.36	0.0575858
1267	0.0569704
1276.64	0.0575155
1286.29	0.058545
1295.93	0.0595227
1305.57	0.0605131
1315.21	0.0616694
1324.86	0.0630354
1334.5	0.0645652
1344.14	0.0658502
1353.78	0.0673677
1363.43	0.069418
1373.07	0.0711547
1382.71	0.0733738
1392.35	0.0738824
1401.99	0.0746291
1411.64	0.07466
1421.28	0.0731296
1430.92	0.0736801
1440.57	0.0733026
1450.21	0.0738564
1459.85	0.0739033
1469.49	0.0733218
1479.13	0.0734129
1488.78	0.0732312
1498.42	0.0750502
1508.06	0.0761026
1517.7	0.0755118
1527.35	0.0763194
1536.99	0.0766613
1546.63	0.0795162
1556.27	0.0776532
1565.91	0.0808651
1575.56	0.0786654
1585.2	0.0821487
1594.84	0.0824139
1604.48	0.0823461
1614.13	0.0817062
1623.77	0.0820719
1633.41	0.0815343
1643.05	0.0825928
1652.7	0.0778489
1662.34	0.082561
1671.98	0.0838209
1681.62	0.0832723
1691.27	0.0851944
1700.91	0.0841428
1710.55	0.0847947
1720.19	0.0846618
1729.84	0.0838167
1739.48	0.0822907
1749.12	0.0828016
1758.76	0.08533
1768.4	0.0873807
1778.05	0.0876441
1787.69	0.0875721
1797.33	0.0867465
1806.97	0.0871697
1816.62	0.0870459
1826.26	0.0874141
1835.9	0.08725
1845.54	0.0877839
1855.18	0.0890731
1864.83	0.0894734
1874.47	0.0902485
1884.11	0.0925306
1893.75	0.0931758
1903.4	0.0954536
1913.04	0.0957498
1922.68	0.097467
1932.32	0.0936714
1941.97	0.0930826
1951.61	0.0900036
1961.25	0.0919513
1970.89	0.0910976
1980.54	0.0964372
1990.18	0.0937595
1999.82	0.0914663
2009.46	0.094429
2019.11	0.0951622
2028.75	0.0942785
2038.39	0.0981543
2048.03	0.0936027
2057.67	0.0950726
2067.32	0.0997704
2076.96	0.0975051
2086.6	0.0999296
2096.24	0.0993989
2105.89	0.100047
2115.53	0.102001
2125.17	0.100023
2134.81	0.10003
2144.45	0.101666
2154.1	0.100303
2163.74	0.104313
2173.38	0.104471
2183.02	0.103936
2192.67	0.105901
2202.31	0.107815
2211.95	0.107205
2221.59	0.108692
2231.24	0.109089
2240.88	0.109191
2250.52	0.111076
2260.16	0.110533
2269.8	0.112233
2279.45	0.113014
2289.09	0.113558
2298.73	0.114861
2308.38	0.115229
2318.02	0.116187
2327.66	0.116425
2337.3	0.117202
2346.94	0.11752
2356.59	0.11802
2366.23	0.11896
2375.87	0.119043
2385.51	0.118727
2395.16	0.12095
2404.8	0.121649
2414.44	0.121306
2424.08	0.122667
2433.72	0.12399
2443.37	0.124071
2453.01	0.124323
2462.65	0.125841
2472.29	0.126389
2481.94	0.126411
2491.58	0.126989
2501.22	0.128572
2510.86	0.129699
2520.51	0.130642
2530.15	0.131034
2539.79	0.131266
2549.43	0.131851
2559.07	0.131705
2568.72	0.132683
2578.36	0.134433
2588	0.135058
2597.64	0.135854
2607.29	0.136648
2616.93	0.138087
2626.57	0.138669
2636.21	0.139508
2645.86	0.13916
2655.5	0.139515
2665.14	0.141148
2674.78	0.141136
2684.43	0.142401
2694.07	0.143623
2703.71	0.144281
2713.35	0.144859
2722.99	0.145931
2732.64	0.145735
2742.28	0.147378
2751.92	0.147772
2761.56	0.149002
2771.21	0.150099
2780.85	0.150496
2790.49	0.152608
2800.13	0.152303
2809.78	0.153292
2819.42	0.156533
2829.06	0.155521
2838.7	0.158165
2848.34	0.159273
2857.99	0.159858
2867.63	0.160643
2877.27	0.163013
2886.91	0.163629
2896.56	0.165586
2906.2	0.166336
2915.84	0.167029
2925.48	0.167614
2935.13	0.167476
2944.77	0.168901
2954.41	0.170284
2964.05	0.171851
2973.7	0.173172
2983.34	0.17587
2992.98	0.175721
3002.62	0.176557
3012.26	0.178412
3021.91	0.179063
3031.55	0.180385
3041.19	0.182722
3050.83	0.18486
3060.48	0.187229
3070.12	0.187481
3079.76	0.189833
3089.4	0.191377
3099.05	0.194379
3108.69	0.1968
3118.33	0.199855
3127.97	0.202386
3137.61	0.20527
3147.26	0.208872
3156.9	0.213562
3166.54	0.21687
3176.18	0.219853
3185.83	0.226141
3195.47	0.229025
3205.11	0.237476
3214.75	0.241697
3224.4	0.250741
3234.04	0.257515
3243.68	0.264873
3253.32	0.274326
3262.97	0.283715
3272.61	0.289437
3282.25	0.30077
3291.89	0.316384
3301.53	0.328845
3311.18	0.348191
3320.82	0.367225
3330.46	0.383892
3340.1	0.402075
3349.75	0.421788
3359.39	0.450261
3369.03	0.481885
3378.67	0.504339
3388.32	0.461097
3397.96	0.342981
3407.6	0.305514
3417.24	0.270096
3426.89	0.243588
3436.53	0.218707
3446.17	0.195837
3455.81	0.176268
3465.45	0.167209
3475.1	0.159941
3484.74	0.153507
3494.38	0.157589
3504.02	0.14967
3513.67	0.155575
3523.31	0.153792
3532.95	0.15636
3542.59	0.158311
3552.24	0.160973
3561.88	0.161544
3571.52	0.161601
3581.16	0.160998
3590.8	0.161728
3600.45	0.16594
3610.09	0.167411
3619.73	0.170279
3629.37	0.166481
3639.02	0.178618
3648.66	0.17053
3658.3	0.178123
3667.94	0.176926
3677.59	0.180106
3687.23	0.17483
3696.87	0.189808
3706.51	0.186554
3716.16	0.186907
3725.8	0.188289
3735.44	0.186507
3745.08	0.187692
3754.72	0.190768
3764.37	0.196777
3774.01	0.198983
3783.65	0.197745
3793.29	0.200054
3802.94	0.202574
3812.58	0.203761
3822.22	0.204485
3831.86	0.204073
3841.51	0.203126
3851.15	0.200037
3860.79	0.209178
3870.43	0.210685
3880.07	0.212882
3889.72	0.211928
3899.36	0.210806
3909	0.212004
3918.64	0.219197
3928.29	0.220991
3937.93	0.222331
3947.57	0.223487
3957.21	0.21888
3966.86	0.221436
3976.5	0.223769
3986.14	0.233825
3995.78	0.231795
