Measurement: Infrared, Infrared Data Processed
Mineral: Borax
Rruff sample: R070168
Ideal chemistry: Na_2_B_4_O_5_(OH)_4_8H_2_O
Locality: Boron, Kramer District, Kern County, California, USA
Source: Michael Scott
Description: Colorless prismatic single crystal associated with tincalconite
Measured chemistry: Na_2.00_B_4_O_5_(OH)_4_Â·8H_2_O ; = lighter phase. Darker phase is probably tincalconite; B, H, O not measured but estimated by stoichiometry
x	intensity
399.193	0.0653127
408.835	0.0718127
418.477	0.0793468
428.12	0.0896071
437.762	0.100062
447.404	0.115058
457.047	0.137267
466.689	0.127117
476.331	0.0905848
485.974	0.0807724
495.616	0.081011
505.258	0.0736271
514.901	0.065726
524.543	0.0675337
534.185	0.0590647
543.828	0.0544304
553.47	0.0510159
563.112	0.0499083
572.755	0.0541986
582.397	0.0523303
592.039	0.0535487
601.682	0.0578771
611.324	0.0591923
620.966	0.0490425
630.609	0.0572302
640.251	0.0647403
649.893	0.0694212
659.536	0.0746803
669.178	0.0853115
678.82	0.0923618
688.463	0.101727
698.105	0.140455
707.747	0.179843
717.39	0.14623
727.032	0.122307
736.674	0.114178
746.317	0.122801
755.959	0.145151
765.601	0.17459
775.244	0.190243
784.886	0.18748
794.528	0.211026
804.171	0.255352
813.813	0.346494
823.455	0.368538
833.098	0.226284
842.74	0.130594
852.382	0.0908175
862.025	0.0836068
871.667	0.0938828
881.309	0.103344
890.952	0.0990125
900.594	0.104035
910.236	0.119132
919.879	0.150347
929.521	0.225876
939.163	0.339494
948.806	0.28359
958.448	0.132188
968.09	0.139875
977.733	0.25915
987.375	0.427988
997.017	0.459031
1006.66	0.359248
1016.3	0.259781
1025.94	0.231034
1035.59	0.196867
1045.23	0.142456
1054.87	0.102363
1064.51	0.099192
1074.16	0.134494
1083.8	0.130831
1093.44	0.11255
1103.08	0.101865
1112.72	0.0929432
1122.37	0.164641
1132.01	0.245706
1141.65	0.144547
1151.3	0.103657
1160.94	0.0949397
1170.58	0.0760298
1180.22	0.0579319
1189.86	0.0514125
1199.51	0.0581274
1209.15	0.0776215
1218.79	0.104925
1228.43	0.112247
1238.08	0.141706
1247.72	0.190178
1257.36	0.210737
1267	0.197025
1276.64	0.188949
1286.29	0.149671
1295.93	0.107438
1305.57	0.0874244
1315.21	0.100418
1324.86	0.17485
1334.5	0.283246
1344.14	0.291637
1353.78	0.237328
1363.43	0.191083
1373.07	0.189725
1382.71	0.197322
1392.35	0.190611
1401.99	0.187827
1411.64	0.194744
1421.28	0.213539
1430.92	0.21142
1440.57	0.187177
1450.21	0.177721
1459.85	0.177067
1469.49	0.166198
1479.13	0.140724
1488.78	0.107643
1498.42	0.0713558
1508.06	0.0403659
1517.7	0.0235419
1527.35	0.0177573
1536.99	0.0154817
1546.63	0.0150472
1556.27	0.0147312
1565.91	0.014143
1575.56	0.0143743
1585.2	0.0141031
1594.84	0.0146942
1604.48	0.0149841
1614.13	0.0163112
1623.77	0.0186859
1633.41	0.0223734
1643.05	0.0270572
1652.7	0.0347686
1662.34	0.0341453
1671.98	0.030363
1681.62	0.0293296
1691.27	0.0263748
1700.91	0.0214856
1710.55	0.0167996
1720.19	0.0135464
1729.84	0.0115443
1739.48	0.0099985
1749.12	0.0090585
1758.76	0.00954172
1768.4	0.00941227
1778.05	0.00939184
1787.69	0.00948193
1797.33	0.00932397
1806.97	0.00907121
1816.62	0.00834801
1826.26	0.00838395
1835.9	0.0079825
1845.54	0.00773684
1855.18	0.00671942
1864.83	0.00628799
1874.47	0.00513992
1884.11	0.0048177
1893.75	0.00491582
1903.4	0.00496173
1913.04	0.00622923
1922.68	0.00573569
1932.32	0.00491444
1941.97	0.00468315
1951.61	0.0031037
1961.25	0.0011074
1970.89	-0.00190546
1980.54	-0.00155072
1990.18	6.30435e-05
1999.82	-0.00030866
2009.46	-0.00156825
2019.11	-0.000847227
2028.75	-0.00150224
2038.39	0.00129055
2048.03	0.00299813
2057.67	0.00331829
2067.32	0.00457921
2076.96	0.00590287
2086.6	0.0068458
2096.24	0.0070123
2105.89	0.00729372
2115.53	0.00859183
2125.17	0.00730387
2134.81	0.00523905
2144.45	0.00476279
2154.1	0.00287063
2163.74	0.00630287
2173.38	0.00643035
2183.02	0.00713481
2192.67	0.00848654
2202.31	0.0084138
2211.95	0.00912941
2221.59	0.00940005
2231.24	0.0101326
2240.88	0.00979877
2250.52	0.00800447
2260.16	0.00721589
2269.8	0.00901231
2279.45	0.0112628
2289.09	0.0122876
2298.73	0.0129239
2308.38	0.0132795
2318.02	0.013848
2327.66	0.0145943
2337.3	0.0150809
2346.94	0.0150812
2356.59	0.0163923
2366.23	0.0165999
2375.87	0.0169566
2385.51	0.018186
2395.16	0.0199694
2404.8	0.0226266
2414.44	0.0254266
2424.08	0.0276304
2433.72	0.0284565
2443.37	0.0286264
2453.01	0.027862
2462.65	0.0276587
2472.29	0.0272963
2481.94	0.0262569
2491.58	0.0253495
2501.22	0.0247602
2510.86	0.0236513
2520.51	0.0229838
2530.15	0.0225008
2539.79	0.0227349
2549.43	0.0237807
2559.07	0.0265725
2568.72	0.0277008
2578.36	0.0303142
2588	0.0331395
2597.64	0.0354869
2607.29	0.0365161
2616.93	0.0369666
2626.57	0.03583
2636.21	0.0348219
2645.86	0.0336171
2655.5	0.0322548
2665.14	0.0312098
2674.78	0.0309247
2684.43	0.031019
2694.07	0.0317931
2703.71	0.0326967
2713.35	0.0342086
2722.99	0.035699
2732.64	0.0375978
2742.28	0.0394472
2751.92	0.041538
2761.56	0.0443729
2771.21	0.04592
2780.85	0.0484644
2790.49	0.0498779
2800.13	0.0517637
2809.78	0.0528163
2819.42	0.0539869
2829.06	0.0548225
2838.7	0.0557144
2848.34	0.0565437
2857.99	0.0585053
2867.63	0.0611408
2877.27	0.0645992
2886.91	0.0672296
2896.56	0.0696466
2906.2	0.0726079
2915.84	0.0746036
2925.48	0.0769771
2935.13	0.0814543
2944.77	0.0853344
2954.41	0.0900956
2964.05	0.0940281
2973.7	0.09911
2983.34	0.103324
2992.98	0.105375
3002.62	0.108686
3012.26	0.111414
3021.91	0.112792
3031.55	0.113608
3041.19	0.114013
3050.83	0.114043
3060.48	0.113461
3070.12	0.112998
3079.76	0.112022
3089.4	0.110716
3099.05	0.109945
3108.69	0.109493
3118.33	0.108968
3127.97	0.109186
3137.61	0.110525
3147.26	0.112004
3156.9	0.114405
3166.54	0.117814
3176.18	0.121422
3185.83	0.125322
3195.47	0.130797
3205.11	0.136806
3214.75	0.14263
3224.4	0.149533
3234.04	0.154928
3243.68	0.159054
3253.32	0.163876
3262.97	0.168797
3272.61	0.174016
3282.25	0.181417
3291.89	0.190383
3301.53	0.203168
3311.18	0.220812
3320.82	0.243914
3330.46	0.268894
3340.1	0.287336
3349.75	0.289261
3359.39	0.269516
3369.03	0.237091
3378.67	0.204195
3388.32	0.177268
3397.96	0.15489
3407.6	0.139297
3417.24	0.12663
3426.89	0.116654
3436.53	0.109748
3446.17	0.103879
3455.81	0.100934
3465.45	0.0979448
3475.1	0.0967983
3484.74	0.097452
3494.38	0.0953462
3504.02	0.0926586
3513.67	0.0849591
3523.31	0.0756438
3532.95	0.0639929
3542.59	0.05478
3552.24	0.0449095
3561.88	0.0375699
3571.52	0.032878
3581.16	0.0284303
3590.8	0.0245541
3600.45	0.0233666
3610.09	0.0196143
3619.73	0.0170986
3629.37	0.0134874
3639.02	0.00936153
3648.66	0.00572575
3658.3	0.00344403
3667.94	0.00117579
3677.59	0.000529662
3687.23	-3.07872e-05
3696.87	-0.000310978
3706.51	-0.000412349
3716.16	-2.79505e-05
3725.8	0.000200126
3735.44	-0.000677253
3745.08	-8.1649e-05
3754.72	-0.000300296
3764.37	-0.00050021
3774.01	-9.40335e-05
3783.65	9.72882e-05
3793.29	0.00044801
3802.94	-0.000518562
3812.58	6.97335e-05
3822.22	0.000841267
3831.86	0.00053372
3841.51	0.000343958
3851.15	0.000380559
3860.79	0.000740585
3870.43	0.000813899
3880.07	5.21972e-05
3889.72	0.00201885
3899.36	0.000983897
3909	0.000209319
3918.64	0.00184993
3928.29	0.00109291
3937.93	0.000552539
3947.57	0.00170778
3957.21	0.0027989
3966.86	0.000970417
3976.5	0.00216389
3986.14	0.00143125
3995.78	0.00199053
