Measurement: Infrared, Infrared Data Processed
Mineral: Bornite
Rruff sample: R050322
Ideal chemistry: Cu^1+^_5_Fe^3+^S^2-^_4_
Locality: Bethlehem Copper mine, Highland Valley, Logan Lake, British Columbia, Canada
Source: Lloyd Twaites
Description: Irridescent purple metallic massive
Measured chemistry: Cu_4.97_Fe_1.03_S_4.00_
x	intensity
399.193	0.243951
408.835	0.235483
418.477	0.248034
428.12	0.255351
437.762	0.257481
447.404	0.260643
457.047	0.266253
466.689	0.272684
476.331	0.274786
485.974	0.282143
495.616	0.285435
505.258	0.294296
514.901	0.298155
524.543	0.303061
534.185	0.305659
543.828	0.311431
553.47	0.317273
563.112	0.322137
572.755	0.322832
582.397	0.328673
592.039	0.332594
601.682	0.337409
611.324	0.342836
620.966	0.345084
630.609	0.350067
640.251	0.353092
649.893	0.356754
659.536	0.359131
669.178	0.363125
678.82	0.36823
688.463	0.371257
698.105	0.37443
707.747	0.378531
717.39	0.382586
727.032	0.386503
736.674	0.39132
746.317	0.397107
755.959	0.402965
765.601	0.405967
775.244	0.410754
784.886	0.414009
794.528	0.417355
804.171	0.422231
813.813	0.426185
823.455	0.430649
833.098	0.434584
842.74	0.436536
852.382	0.440783
862.025	0.444524
871.667	0.447484
881.309	0.447624
890.952	0.451977
900.594	0.454523
910.236	0.458453
919.879	0.461855
929.521	0.466448
939.163	0.468952
948.806	0.47157
958.448	0.47347
968.09	0.475195
977.733	0.47648
987.375	0.479121
997.017	0.481213
1006.66	0.484733
1016.3	0.487201
1025.94	0.489123
1035.59	0.491773
1045.23	0.493494
1054.87	0.49617
1064.51	0.499752
1074.16	0.502594
1083.8	0.504982
1093.44	0.506447
1103.08	0.509385
1112.72	0.511476
1122.37	0.514124
1132.01	0.517527
1141.65	0.523098
1151.3	0.525591
1160.94	0.526822
1170.58	0.526038
1180.22	0.529609
1189.86	0.533787
1199.51	0.536991
1209.15	0.53928
1218.79	0.54362
1228.43	0.544946
1238.08	0.547052
1247.72	0.548397
1257.36	0.550235
1267	0.551759
1276.64	0.553496
1286.29	0.556105
1295.93	0.559341
1305.57	0.56153
1315.21	0.564145
1324.86	0.566546
1334.5	0.569464
1344.14	0.571436
1353.78	0.575322
1363.43	0.577748
1373.07	0.580429
1382.71	0.583453
1392.35	0.585414
1401.99	0.587611
1411.64	0.589036
1421.28	0.589213
1430.92	0.588838
1440.57	0.589404
1450.21	0.589587
1459.85	0.589395
1469.49	0.590364
1479.13	0.594032
1488.78	0.597178
1498.42	0.600565
1508.06	0.60249
1517.7	0.602669
1527.35	0.605305
1536.99	0.608074
1546.63	0.609952
1556.27	0.611685
1565.91	0.613998
1575.56	0.617301
1585.2	0.618251
1594.84	0.621282
1604.48	0.62216
1614.13	0.624326
1623.77	0.626249
1633.41	0.628802
1643.05	0.630638
1652.7	0.633959
1662.34	0.633656
1671.98	0.635991
1681.62	0.636865
1691.27	0.639365
1700.91	0.641234
1710.55	0.641581
1720.19	0.643357
1729.84	0.644735
1739.48	0.643966
1749.12	0.644339
1758.76	0.649818
1768.4	0.652831
1778.05	0.655335
1787.69	0.654754
1797.33	0.656031
1806.97	0.655704
1816.62	0.655374
1826.26	0.657232
1835.9	0.658363
1845.54	0.657147
1855.18	0.658363
1864.83	0.660174
1874.47	0.6595
1884.11	0.66075
1893.75	0.6604
1903.4	0.662859
1913.04	0.662579
1922.68	0.658385
1932.32	0.656598
1941.97	0.655583
1951.61	0.653355
1961.25	0.650277
1970.89	0.640836
1980.54	0.64562
1990.18	0.653908
1999.82	0.652315
2009.46	0.651933
2019.11	0.646298
2028.75	0.650135
2038.39	0.655023
2048.03	0.663082
2057.67	0.669706
2067.32	0.678672
2076.96	0.681119
2086.6	0.689289
2096.24	0.688858
2105.89	0.688958
2115.53	0.692296
2125.17	0.690345
2134.81	0.682397
2144.45	0.677847
2154.1	0.670046
2163.74	0.666072
2173.38	0.679847
2183.02	0.682128
2192.67	0.690638
2202.31	0.692175
2211.95	0.699459
2221.59	0.700477
2231.24	0.703601
2240.88	0.707003
2250.52	0.713645
2260.16	0.714734
2269.8	0.721942
2279.45	0.724897
2289.09	0.728994
2298.73	0.735437
2308.38	0.740201
2318.02	0.743878
2327.66	0.750208
2337.3	0.750732
2346.94	0.750911
2356.59	0.753517
2366.23	0.75298
2375.87	0.751577
2385.51	0.750149
2395.16	0.751432
2404.8	0.755258
2414.44	0.753636
2424.08	0.75336
2433.72	0.753964
2443.37	0.75666
2453.01	0.75767
2462.65	0.758475
2472.29	0.759933
2481.94	0.762025
2491.58	0.762631
2501.22	0.765921
2510.86	0.767087
2520.51	0.768027
2530.15	0.768843
2539.79	0.769371
2549.43	0.771848
2559.07	0.774065
2568.72	0.772493
2578.36	0.775249
2588	0.778973
2597.64	0.78249
2607.29	0.781541
2616.93	0.786447
2626.57	0.787726
2636.21	0.791388
2645.86	0.796374
2655.5	0.797656
2665.14	0.800333
2674.78	0.801589
2684.43	0.802077
2694.07	0.802916
2703.71	0.804277
2713.35	0.808054
2722.99	0.809637
2732.64	0.808913
2742.28	0.811468
2751.92	0.813141
2761.56	0.814171
2771.21	0.814837
2780.85	0.816084
2790.49	0.817789
2800.13	0.818237
2809.78	0.821151
2819.42	0.821591
2829.06	0.822413
2838.7	0.823097
2848.34	0.825102
2857.99	0.823971
2867.63	0.826866
2877.27	0.830891
2886.91	0.828794
2896.56	0.832286
2906.2	0.831103
2915.84	0.834586
2925.48	0.830209
2935.13	0.832894
2944.77	0.833002
2954.41	0.831055
2964.05	0.832237
2973.7	0.834729
2983.34	0.839436
2992.98	0.840493
3002.62	0.839608
3012.26	0.839408
3021.91	0.843393
3031.55	0.841782
3041.19	0.845802
3050.83	0.845613
3060.48	0.847182
3070.12	0.845874
3079.76	0.848261
3089.4	0.851161
3099.05	0.853093
3108.69	0.851633
3118.33	0.854141
3127.97	0.852197
3137.61	0.858097
3147.26	0.858505
3156.9	0.855428
3166.54	0.859447
3176.18	0.860595
3185.83	0.862981
3195.47	0.861337
3205.11	0.861806
3214.75	0.864903
3224.4	0.867085
3234.04	0.866239
3243.68	0.863676
3253.32	0.868282
3262.97	0.872834
3272.61	0.873021
3282.25	0.870193
3291.89	0.870433
3301.53	0.871009
3311.18	0.87226
3320.82	0.875597
3330.46	0.877786
3340.1	0.877298
3349.75	0.883337
3359.39	0.878572
3369.03	0.881172
3378.67	0.88344
3388.32	0.878668
3397.96	0.886857
3407.6	0.880182
3417.24	0.886222
3426.89	0.887123
3436.53	0.884372
3446.17	0.878502
3455.81	0.886441
3465.45	0.890193
3475.1	0.893052
3484.74	0.890314
3494.38	0.890621
3504.02	0.891991
3513.67	0.893529
3523.31	0.893223
3532.95	0.893853
3542.59	0.896782
3552.24	0.899638
3561.88	0.895904
3571.52	0.898409
3581.16	0.893677
3590.8	0.899874
3600.45	0.895311
3610.09	0.897802
3619.73	0.90351
3629.37	0.903208
3639.02	0.904185
3648.66	0.90826
3658.3	0.909614
3667.94	0.912277
3677.59	0.909632
3687.23	0.914169
3696.87	0.914218
3706.51	0.913737
3716.16	0.913203
3725.8	0.918259
3735.44	0.92956
3745.08	0.924011
3754.72	0.929348
3764.37	0.930673
3774.01	0.927738
3783.65	0.930813
3793.29	0.932207
3802.94	0.929402
3812.58	0.932247
3822.22	0.929268
3831.86	0.934696
3841.51	0.940486
3851.15	0.944722
3860.79	0.93331
3870.43	0.936719
3880.07	0.943
3889.72	0.941127
3899.36	0.944513
3909	0.948124
3918.64	0.944655
3928.29	0.944126
3937.93	0.944258
3947.57	0.947484
3957.21	0.940416
3966.86	0.948677
3976.5	0.947625
3986.14	0.957129
3995.78	0.952372
