Measurement: Infrared, Infrared Data Processed
Mineral: Bournonite
Rruff sample: R050111
Ideal chemistry: Cu^1+^Pb^2+^Sb^3+^S^2-^_3_
Locality: Yao Gang Xian mine, Chenzhou, Hunan Province, China
Source: He Xin Jian
Description: Steel-gray short prismatic crystal
Measured chemistry: PbCuSbS_3_
x	intensity
50.1401	0.0329378
52.0686	0.0369823
53.9971	0.0333842
55.9255	0.0295165
57.854	0.0301797
59.7825	0.0427908
61.7109	0.0415529
63.6394	0.0461497
65.5679	0.0466032
67.4963	0.0517471
69.4248	0.0527762
71.3533	0.0578405
73.2817	0.0580682
75.2102	0.0600634
77.1387	0.0601336
79.0671	0.0633052
80.9956	0.0620205
82.9241	0.0655155
84.8525	0.0654827
86.781	0.0673038
88.7095	0.0656844
90.6379	0.069178
92.5664	0.0701618
94.4948	0.0717531
96.4233	0.0719447
98.3518	0.075828
100.28	0.0778561
102.209	0.0789228
104.137	0.0774229
106.066	0.0793789
107.994	0.0805175
109.923	0.0798113
111.851	0.0766448
113.779	0.0780521
115.708	0.0806318
117.636	0.0843434
119.565	0.0851473
121.493	0.087575
123.422	0.086932
125.35	0.0872525
127.279	0.0873336
129.207	0.0892222
131.136	0.0882002
133.064	0.0889819
134.993	0.090901
136.921	0.0942958
138.85	0.0950714
140.778	0.0964536
142.707	0.0984633
144.635	0.102235
146.563	0.105059
148.492	0.108282
150.42	0.10875
152.349	0.111077
154.277	0.112365
156.206	0.113663
158.134	0.11403
160.063	0.114774
161.991	0.114208
163.92	0.113998
165.848	0.112242
167.777	0.110871
169.705	0.108596
171.633	0.107099
173.562	0.105363
175.49	0.104591
177.419	0.104277
179.347	0.105618
181.276	0.106443
183.204	0.107231
185.133	0.107355
187.061	0.108043
188.99	0.107318
190.918	0.106971
192.847	0.105589
194.775	0.104793
196.704	0.104444
198.632	0.10555
200.56	0.106648
202.489	0.107764
204.417	0.107513
206.346	0.108317
208.274	0.11042
210.203	0.114832
212.131	0.119258
214.06	0.123574
215.988	0.126469
217.917	0.129022
219.845	0.129796
221.774	0.130141
223.702	0.129282
225.631	0.128725
227.559	0.126032
229.488	0.123381
231.416	0.120907
233.344	0.119513
235.273	0.118499
237.201	0.118067
239.13	0.11822
241.058	0.119856
242.987	0.120962
244.915	0.121364
246.844	0.121519
248.772	0.122133
250.701	0.123921
252.629	0.126793
254.558	0.130176
256.486	0.134562
258.414	0.138293
260.343	0.14188
262.271	0.143863
264.2	0.144541
266.128	0.143132
268.057	0.140975
269.985	0.138899
271.914	0.138356
273.842	0.13891
275.771	0.140126
277.699	0.140723
279.628	0.14189
281.556	0.143937
283.485	0.147016
285.413	0.148002
287.341	0.146608
289.27	0.142497
291.198	0.13732
293.127	0.131239
295.055	0.125205
296.984	0.119323
298.912	0.111622
300.841	0.101535
302.769	0.0892452
304.698	0.0795466
306.626	0.0762549
308.555	0.0779704
310.483	0.0832386
312.411	0.090614
314.34	0.0990336
316.269	0.106216
318.197	0.109999
320.125	0.110349
322.054	0.108489
323.982	0.107096
325.911	0.107004
327.839	0.107285
329.768	0.109237
331.696	0.113067
333.625	0.116456
335.553	0.115189
337.482	0.108842
339.41	0.100295
341.339	0.0925479
343.267	0.0862589
345.195	0.0835813
347.124	0.0846354
349.052	0.0878131
350.981	0.0920774
352.909	0.0964427
354.838	0.100612
356.766	0.104198
358.695	0.107501
360.623	0.111084
362.552	0.114204
364.48	0.116752
366.409	0.119106
368.337	0.12168
370.265	0.123812
372.194	0.126019
374.122	0.128327
376.051	0.130096
377.979	0.131407
379.908	0.133269
381.836	0.135067
383.765	0.13623
385.693	0.137547
387.622	0.138971
389.55	0.140155
391.479	0.142009
393.407	0.14336
395.336	0.144433
397.264	0.145442
399.192	0.146583
401.121	0.147741
403.049	0.149105
404.978	0.150646
406.906	0.151788
408.835	0.152537
410.763	0.153613
412.692	0.154617
414.62	0.155411
416.549	0.156168
418.477	0.157379
420.406	0.1584
422.334	0.159554
424.262	0.160683
426.191	0.161599
428.12	0.162287
430.048	0.163014
431.976	0.164006
433.905	0.165166
435.833	0.165889
437.762	0.16671
439.69	0.167604
441.619	0.16845
443.547	0.168989
445.476	0.169674
447.404	0.170267
449.333	0.171241
451.261	0.171971
453.19	0.172498
455.118	0.173486
457.046	0.174526
458.975	0.174536
460.903	0.175145
462.832	0.176144
464.76	0.17705
466.689	0.177703
468.617	0.178181
470.546	0.179027
472.474	0.179874
474.403	0.179855
476.331	0.18089
478.26	0.181701
480.188	0.182577
482.116	0.183364
484.045	0.183906
485.974	0.184562
487.902	0.185803
489.83	0.186558
491.759	0.187347
493.687	0.187889
495.616	0.188468
497.544	0.189319
499.473	0.189865
501.401	0.190101
503.33	0.191057
505.258	0.192093
507.187	0.192823
509.115	0.193028
511.043	0.193238
512.972	0.193454
514.9	0.194505
516.829	0.195113
518.757	0.19545
520.686	0.195746
522.614	0.196296
524.543	0.196605
526.471	0.196795
528.4	0.197277
530.328	0.198252
532.257	0.19909
534.185	0.199496
536.114	0.199653
538.042	0.200015
539.971	0.199998
541.899	0.200982
543.827	0.20227
545.756	0.202584
547.684	0.202644
549.613	0.203276
551.541	0.204101
553.47	0.20466
555.398	0.205436
557.327	0.206286
559.255	0.206678
561.184	0.207322
563.112	0.208414
565.041	0.208819
566.969	0.209805
568.898	0.211004
570.826	0.211372
572.755	0.211698
574.683	0.212166
576.611	0.212946
578.54	0.213618
580.468	0.214571
582.397	0.215918
584.325	0.216539
586.254	0.216723
588.182	0.217653
590.111	0.218413
592.039	0.219233
593.968	0.22052
595.896	0.221725
597.824	0.222938
599.753	0.224088
601.682	0.224662
603.61	0.225174
605.538	0.22544
607.467	0.226684
609.395	0.22732
611.324	0.227836
613.252	0.228385
615.181	0.228581
617.109	0.228172
619.038	0.228455
620.966	0.229282
622.894	0.230232
624.823	0.230555
626.751	0.230189
628.68	0.229581
630.608	0.229653
632.537	0.229914
634.465	0.229773
636.394	0.229786
638.322	0.230012
640.251	0.229862
642.179	0.230045
644.108	0.230532
646.036	0.231002
647.965	0.231301
649.893	0.231526
651.822	0.231777
653.75	0.232243
655.678	0.232592
657.607	0.232979
659.535	0.233174
661.464	0.233809
663.392	0.234323
665.321	0.235047
667.249	0.235566
669.178	0.235684
671.106	0.235969
673.035	0.236028
674.963	0.236901
676.892	0.237874
678.82	0.237873
680.749	0.238215
682.677	0.238764
684.606	0.238876
686.534	0.238805
688.462	0.239753
690.391	0.239655
692.319	0.239368
694.248	0.240853
696.176	0.242014
698.105	0.242829
700.033	0.244213
