Measurement: Infrared, Infrared Data Processed
Mineral: Bournonite
Rruff sample: R050364
Ideal chemistry: Cu^1+^Pb^2+^Sb^3+^S^2-^_3_
Locality: Neudorf, Harz Mountains, Austria
Source: University of Arizona Mineral Museum
Description: Black fragment
Measured chemistry: Pb_1.00_Cu_1.00_Sb_1.00_S_3.00_
x	intensity
399.193	0.177027
408.835	0.193406
418.477	0.205205
428.12	0.208844
437.762	0.216831
447.404	0.225384
457.047	0.230094
466.689	0.235462
476.331	0.241155
485.974	0.24705
495.616	0.254992
505.258	0.260089
514.901	0.268783
524.543	0.273015
534.185	0.278678
543.828	0.283481
553.47	0.289531
563.112	0.295507
572.755	0.29771
582.397	0.302156
592.039	0.30704
601.682	0.312357
611.324	0.316117
620.966	0.320645
630.609	0.324811
640.251	0.326747
649.893	0.330023
659.536	0.331335
669.178	0.334109
678.82	0.33878
688.463	0.339967
698.105	0.343885
707.747	0.347649
717.39	0.351037
727.032	0.354032
736.674	0.35674
746.317	0.359904
755.959	0.36316
765.601	0.366271
775.244	0.368646
784.886	0.370961
794.528	0.374701
804.171	0.378021
813.813	0.382404
823.455	0.385514
833.098	0.388277
842.74	0.390468
852.382	0.392682
862.025	0.396145
871.667	0.400067
881.309	0.403207
890.952	0.406831
900.594	0.408071
910.236	0.412527
919.879	0.415597
929.521	0.418941
939.163	0.42085
948.806	0.424438
958.448	0.427279
968.09	0.432015
977.733	0.435753
987.375	0.439244
997.017	0.442034
1006.66	0.44586
1016.3	0.450552
1025.94	0.450981
1035.59	0.454266
1045.23	0.457391
1054.87	0.460489
1064.51	0.463976
1074.16	0.467129
1083.8	0.469359
1093.44	0.472701
1103.08	0.475533
1112.72	0.477651
1122.37	0.479659
1132.01	0.482482
1141.65	0.487554
1151.3	0.489625
1160.94	0.48979
1170.58	0.489153
1180.22	0.491191
1189.86	0.49281
1199.51	0.494304
1209.15	0.495336
1218.79	0.497076
1228.43	0.498408
1238.08	0.499901
1247.72	0.501129
1257.36	0.501247
1267	0.501799
1276.64	0.504245
1286.29	0.507539
1295.93	0.509204
1305.57	0.510814
1315.21	0.511687
1324.86	0.514695
1334.5	0.516506
1344.14	0.518548
1353.78	0.522552
1363.43	0.526076
1373.07	0.528217
1382.71	0.530663
1392.35	0.531857
1401.99	0.534818
1411.64	0.536778
1421.28	0.538819
1430.92	0.540148
1440.57	0.542554
1450.21	0.546922
1459.85	0.54955
1469.49	0.550432
1479.13	0.550878
1488.78	0.553333
1498.42	0.557421
1508.06	0.560324
1517.7	0.560738
1527.35	0.563206
1536.99	0.565132
1546.63	0.567372
1556.27	0.569767
1565.91	0.571577
1575.56	0.574363
1585.2	0.577184
1594.84	0.579078
1604.48	0.581024
1614.13	0.58296
1623.77	0.584935
1633.41	0.586127
1643.05	0.588363
1652.7	0.590023
1662.34	0.5905
1671.98	0.593004
1681.62	0.595491
1691.27	0.595897
1700.91	0.597922
1710.55	0.600575
1720.19	0.602929
1729.84	0.605713
1739.48	0.607658
1749.12	0.608646
1758.76	0.609303
1768.4	0.610759
1778.05	0.612633
1787.69	0.612652
1797.33	0.612708
1806.97	0.614247
1816.62	0.61545
1826.26	0.615635
1835.9	0.617139
1845.54	0.619269
1855.18	0.620783
1864.83	0.620774
1874.47	0.621649
1884.11	0.625895
1893.75	0.625365
1903.4	0.625717
1913.04	0.626084
1922.68	0.626397
1932.32	0.626814
1941.97	0.623419
1951.61	0.621047
1961.25	0.615939
1970.89	0.609169
1980.54	0.619954
1990.18	0.628263
1999.82	0.624621
2009.46	0.618852
2019.11	0.619509
2028.75	0.622783
2038.39	0.623861
2048.03	0.635506
2057.67	0.645737
2067.32	0.645009
2076.96	0.652168
2086.6	0.655824
2096.24	0.654437
2105.89	0.659588
2115.53	0.659227
2125.17	0.663176
2134.81	0.655051
2144.45	0.647874
2154.1	0.646019
2163.74	0.643202
2173.38	0.644977
2183.02	0.656334
2192.67	0.659477
2202.31	0.659912
2211.95	0.666642
2221.59	0.675599
2231.24	0.674786
2240.88	0.680234
2250.52	0.683875
2260.16	0.6881
2269.8	0.689201
2279.45	0.695813
2289.09	0.699602
2298.73	0.70488
2308.38	0.707811
2318.02	0.709417
2327.66	0.71643
2337.3	0.717563
2346.94	0.717825
2356.59	0.720984
2366.23	0.720394
2375.87	0.719806
2385.51	0.721272
2395.16	0.722245
2404.8	0.721545
2414.44	0.722575
2424.08	0.725428
2433.72	0.72691
2443.37	0.729858
2453.01	0.731648
2462.65	0.736162
2472.29	0.733174
2481.94	0.73544
2491.58	0.739648
2501.22	0.741178
2510.86	0.741341
2520.51	0.744773
2530.15	0.745058
2539.79	0.74548
2549.43	0.74761
2559.07	0.749483
2568.72	0.753196
2578.36	0.750659
2588	0.757584
2597.64	0.756604
2607.29	0.758374
2616.93	0.764537
2626.57	0.765126
2636.21	0.769585
2645.86	0.772984
2655.5	0.773285
2665.14	0.7764
2674.78	0.777482
2684.43	0.779625
2694.07	0.781284
2703.71	0.782471
2713.35	0.784481
2722.99	0.786754
2732.64	0.788922
2742.28	0.789347
2751.92	0.791238
2761.56	0.791906
2771.21	0.794309
2780.85	0.794688
2790.49	0.797455
2800.13	0.798851
2809.78	0.80155
2819.42	0.802846
2829.06	0.803396
2838.7	0.808705
2848.34	0.814376
2857.99	0.81005
2867.63	0.812398
2877.27	0.813615
2886.91	0.81593
2896.56	0.818809
2906.2	0.824085
2915.84	0.827956
2925.48	0.826225
2935.13	0.821067
2944.77	0.821071
2954.41	0.825135
2964.05	0.825331
2973.7	0.823327
2983.34	0.822195
2992.98	0.824376
3002.62	0.826717
3012.26	0.829103
3021.91	0.830521
3031.55	0.830082
3041.19	0.830876
3050.83	0.834026
3060.48	0.83815
3070.12	0.838954
3079.76	0.837094
3089.4	0.844125
3099.05	0.840459
3108.69	0.842729
3118.33	0.847159
3127.97	0.846606
3137.61	0.850338
3147.26	0.84603
3156.9	0.853226
3166.54	0.851595
3176.18	0.854225
3185.83	0.858567
3195.47	0.862371
3205.11	0.860932
3214.75	0.858319
3224.4	0.861397
3234.04	0.868689
3243.68	0.865291
3253.32	0.866288
3262.97	0.870843
3272.61	0.877277
3282.25	0.877721
3291.89	0.877926
3301.53	0.880148
3311.18	0.881442
3320.82	0.882013
3330.46	0.883784
3340.1	0.888456
3349.75	0.887799
3359.39	0.888623
3369.03	0.889372
3378.67	0.895237
3388.32	0.888199
3397.96	0.89696
3407.6	0.893308
3417.24	0.893721
3426.89	0.899768
3436.53	0.900439
3446.17	0.902489
3455.81	0.902231
3465.45	0.901854
3475.1	0.901268
3484.74	0.906021
3494.38	0.9045
3504.02	0.909657
3513.67	0.906713
3523.31	0.911401
3532.95	0.912967
3542.59	0.91335
3552.24	0.908026
3561.88	0.913152
3571.52	0.912331
3581.16	0.918977
3590.8	0.913145
3600.45	0.917647
3610.09	0.920795
3619.73	0.919466
3629.37	0.921918
3639.02	0.924063
3648.66	0.933001
3658.3	0.926778
3667.94	0.929447
3677.59	0.930514
3687.23	0.933276
3696.87	0.928321
3706.51	0.934996
3716.16	0.941092
3725.8	0.938381
3735.44	0.940286
3745.08	0.946032
3754.72	0.942517
3764.37	0.945651
3774.01	0.949578
3783.65	0.949892
3793.29	0.951678
3802.94	0.949121
3812.58	0.95681
3822.22	0.953181
3831.86	0.958799
3841.51	0.961773
3851.15	0.957676
3860.79	0.964916
3870.43	0.96034
3880.07	0.961954
3889.72	0.971653
3899.36	0.970681
3909	0.967949
3918.64	0.973402
3928.29	0.977981
3937.93	0.981407
3947.57	0.977704
3957.21	0.98214
3966.86	0.982553
3976.5	0.977884
3986.14	0.993728
3995.78	0.981397
