Measurement: Infrared, Infrared Data Processed
Mineral: Braunite
Rruff sample: R050388
Ideal chemistry: Mn^2+^Mn^3+^_6_SiO_12_
Locality: Langban, Filipstad, Varmland, Sweden
Source: University of Arizona Mineral Museum
Description: Black crystals
Measured chemistry: (Mn^2+^_0.96_Mg_0.04_)_Î£=1_Mn^3+^_6.00_Si_1.00_O_12_
x	intensity
399.193	0.200457
408.835	0.216593
418.477	0.235546
428.12	0.258243
437.762	0.279805
447.404	0.274915
457.047	0.247501
466.689	0.282535
476.331	0.276857
485.974	0.271061
495.616	0.299649
505.258	0.307983
514.901	0.29604
524.543	0.258694
534.185	0.211043
543.828	0.227049
553.47	0.223443
563.112	0.165936
572.755	0.182598
582.397	0.253224
592.039	0.305546
601.682	0.324589
611.324	0.312947
620.966	0.272923
630.609	0.228845
640.251	0.193446
649.893	0.161064
659.536	0.132644
669.178	0.111811
678.82	0.0995781
688.463	0.0935137
698.105	0.104672
707.747	0.119836
717.39	0.0820723
727.032	0.0486491
736.674	0.0340447
746.317	0.0273178
755.959	0.0248859
765.601	0.0246964
775.244	0.0247406
784.886	0.0270118
794.528	0.0296458
804.171	0.0343744
813.813	0.0384106
823.455	0.0440536
833.098	0.0498517
842.74	0.0572612
852.382	0.0646834
862.025	0.0752735
871.667	0.104571
881.309	0.11713
890.952	0.113556
900.594	0.14226
910.236	0.174727
919.879	0.221597
929.521	0.280885
939.163	0.314479
948.806	0.297322
958.448	0.227524
968.09	0.133673
977.733	0.0615304
987.375	0.0331432
997.017	0.0249638
1006.66	0.0217468
1016.3	0.0215402
1025.94	0.0230345
1035.59	0.0253823
1045.23	0.0271776
1054.87	0.0296843
1064.51	0.0333576
1074.16	0.0381023
1083.8	0.0431814
1093.44	0.0461925
1103.08	0.0457479
1112.72	0.0467552
1122.37	0.04877
1132.01	0.050247
1141.65	0.0497241
1151.3	0.0496252
1160.94	0.0501965
1170.58	0.0525145
1180.22	0.0550214
1189.86	0.056291
1199.51	0.0545342
1209.15	0.0520405
1218.79	0.0514616
1228.43	0.0516465
1238.08	0.0528219
1247.72	0.0546187
1257.36	0.0568434
1267	0.0593316
1276.64	0.0621845
1286.29	0.0641006
1295.93	0.0665088
1305.57	0.0695107
1315.21	0.0730587
1324.86	0.0758966
1334.5	0.0798121
1344.14	0.0847101
1353.78	0.0902864
1363.43	0.0977665
1373.07	0.105569
1382.71	0.116511
1392.35	0.132663
1401.99	0.150778
1411.64	0.1658
1421.28	0.176851
1430.92	0.182825
1440.57	0.183806
1450.21	0.18247
1459.85	0.176025
1469.49	0.167731
1479.13	0.158418
1488.78	0.148442
1498.42	0.139003
1508.06	0.129047
1517.7	0.118687
1527.35	0.110876
1536.99	0.105681
1546.63	0.101497
1556.27	0.0984289
1565.91	0.0964975
1575.56	0.0957582
1585.2	0.0957942
1594.84	0.0965974
1604.48	0.097191
1614.13	0.0973978
1623.77	0.0983438
1633.41	0.0990427
1643.05	0.100363
1652.7	0.100496
1662.34	0.101705
1671.98	0.101955
1681.62	0.102236
1691.27	0.102252
1700.91	0.103459
1710.55	0.103662
1720.19	0.105331
1729.84	0.105206
1739.48	0.105111
1749.12	0.105492
1758.76	0.1071
1768.4	0.109783
1778.05	0.109661
1787.69	0.111623
1797.33	0.112343
1806.97	0.112892
1816.62	0.113035
1826.26	0.113538
1835.9	0.113587
1845.54	0.114938
1855.18	0.115709
1864.83	0.116324
1874.47	0.116735
1884.11	0.115966
1893.75	0.116813
1903.4	0.117812
1913.04	0.116764
1922.68	0.118449
1932.32	0.120579
1941.97	0.1205
1951.61	0.121807
1961.25	0.121606
1970.89	0.125245
1980.54	0.128464
1990.18	0.124784
1999.82	0.12521
2009.46	0.127169
2019.11	0.127565
2028.75	0.131464
2038.39	0.127304
2048.03	0.130018
2057.67	0.130511
2067.32	0.131774
2076.96	0.13469
2086.6	0.132696
2096.24	0.131763
2105.89	0.133391
2115.53	0.135138
2125.17	0.135265
2134.81	0.132106
2144.45	0.134123
2154.1	0.128085
2163.74	0.134097
2173.38	0.135427
2183.02	0.13656
2192.67	0.136966
2202.31	0.139666
2211.95	0.141598
2221.59	0.140752
2231.24	0.1415
2240.88	0.142794
2250.52	0.13978
2260.16	0.143934
2269.8	0.145401
2279.45	0.145997
2289.09	0.146675
2298.73	0.148053
2308.38	0.146786
2318.02	0.147672
2327.66	0.148076
2337.3	0.148586
2346.94	0.147923
2356.59	0.150291
2366.23	0.150379
2375.87	0.150355
2385.51	0.149293
2395.16	0.149258
2404.8	0.150911
2414.44	0.152243
2424.08	0.151633
2433.72	0.15277
2443.37	0.153232
2453.01	0.155308
2462.65	0.15401
2472.29	0.153097
2481.94	0.156379
2491.58	0.155583
2501.22	0.15756
2510.86	0.157397
2520.51	0.15694
2530.15	0.157595
2539.79	0.157771
2549.43	0.157671
2559.07	0.158596
2568.72	0.158238
2578.36	0.158518
2588	0.160736
2597.64	0.159972
2607.29	0.160694
2616.93	0.163053
2626.57	0.163202
2636.21	0.162026
2645.86	0.163357
2655.5	0.163053
2665.14	0.164068
2674.78	0.163163
2684.43	0.163887
2694.07	0.164132
2703.71	0.164507
2713.35	0.166044
2722.99	0.165799
2732.64	0.166245
2742.28	0.165994
2751.92	0.16777
2761.56	0.166495
2771.21	0.16807
2780.85	0.16815
2790.49	0.167205
2800.13	0.168813
2809.78	0.168936
2819.42	0.169699
2829.06	0.169701
2838.7	0.17028
2848.34	0.171826
2857.99	0.170149
2867.63	0.170565
2877.27	0.170452
2886.91	0.170946
2896.56	0.171322
2906.2	0.171047
2915.84	0.171956
2925.48	0.172083
2935.13	0.172223
2944.77	0.172823
2954.41	0.172475
2964.05	0.173841
2973.7	0.172155
2983.34	0.172735
2992.98	0.174312
3002.62	0.175328
3012.26	0.176752
3021.91	0.179005
3031.55	0.177966
3041.19	0.179894
3050.83	0.179115
3060.48	0.181514
3070.12	0.181024
3079.76	0.17984
3089.4	0.182925
3099.05	0.181786
3108.69	0.182427
3118.33	0.184133
3127.97	0.184111
3137.61	0.184541
3147.26	0.183698
3156.9	0.184667
3166.54	0.187091
3176.18	0.18819
3185.83	0.186481
3195.47	0.186365
3205.11	0.185699
3214.75	0.186596
3224.4	0.186766
3234.04	0.187862
3243.68	0.187159
3253.32	0.186638
3262.97	0.18838
3272.61	0.191258
3282.25	0.190932
3291.89	0.189908
3301.53	0.192388
3311.18	0.190752
3320.82	0.191009
3330.46	0.193281
3340.1	0.191323
3349.75	0.191039
3359.39	0.193707
3369.03	0.194682
3378.67	0.192546
3388.32	0.190175
3397.96	0.195014
3407.6	0.191264
3417.24	0.197974
3426.89	0.195704
3436.53	0.197515
3446.17	0.192416
3455.81	0.19759
3465.45	0.19397
3475.1	0.193806
3484.74	0.194469
3494.38	0.196105
3504.02	0.197875
3513.67	0.194962
3523.31	0.191504
3532.95	0.193344
3542.59	0.190329
3552.24	0.197755
3561.88	0.194383
3571.52	0.19298
3581.16	0.195354
3590.8	0.194882
3600.45	0.194252
3610.09	0.195034
3619.73	0.193847
3629.37	0.192758
3639.02	0.198825
3648.66	0.196825
3658.3	0.198469
3667.94	0.197211
3677.59	0.195828
3687.23	0.197389
3696.87	0.196388
3706.51	0.194918
3716.16	0.201778
3725.8	0.196651
3735.44	0.200661
3745.08	0.204452
3754.72	0.204344
3764.37	0.197753
3774.01	0.202581
3783.65	0.199632
3793.29	0.201829
3802.94	0.197965
3812.58	0.199395
3822.22	0.209344
3831.86	0.205182
3841.51	0.202331
3851.15	0.204428
3860.79	0.204112
3870.43	0.20365
3880.07	0.200254
3889.72	0.203348
3899.36	0.199385
3909	0.204494
3918.64	0.206546
3928.29	0.203551
3937.93	0.202421
3947.57	0.201612
3957.21	0.205874
3966.86	0.209492
3976.5	0.201243
3986.14	0.205523
3995.78	0.210113
