Measurement: Infrared, Infrared Data Processed
Mineral: Braunite
Rruff sample: R050390
Ideal chemistry: Mn^2+^Mn^3+^_6_SiO_12_
Locality: Oehrenstock, Thuringia, Germany
Source: University of Arizona Mineral Museum
Description: Mass of black octahedra
Measured chemistry: (Mn^2+^_0.83_Ca_0.17_)_Î£=1_Mn^3+^_6.00_Si_1.00_O_12_
x	intensity
399.193	0.186829
408.835	0.212124
418.477	0.222769
428.12	0.232391
437.762	0.250223
447.404	0.251718
457.047	0.239679
466.689	0.251386
476.331	0.258819
485.974	0.252997
495.616	0.265373
505.258	0.273213
514.901	0.262615
524.543	0.23805
534.185	0.215866
543.828	0.222499
553.47	0.213719
563.112	0.179648
572.755	0.189401
582.397	0.235351
592.039	0.272636
601.682	0.284852
611.324	0.268402
620.966	0.239271
630.609	0.209345
640.251	0.181957
649.893	0.157509
659.536	0.134118
669.178	0.113941
678.82	0.100631
688.463	0.0958587
698.105	0.100041
707.747	0.105718
717.39	0.0818987
727.032	0.0535112
736.674	0.0380244
746.317	0.0326205
755.959	0.030968
765.601	0.0326721
775.244	0.0358385
784.886	0.0407443
794.528	0.0483154
804.171	0.0579298
813.813	0.0659266
823.455	0.0742308
833.098	0.0819195
842.74	0.0872797
852.382	0.0879436
862.025	0.0895318
871.667	0.0933501
881.309	0.10077
890.952	0.115943
900.594	0.141408
910.236	0.169319
919.879	0.210534
929.521	0.253334
939.163	0.261725
948.806	0.229955
958.448	0.172565
968.09	0.108719
977.733	0.0556439
987.375	0.0367328
997.017	0.028423
1006.66	0.0250578
1016.3	0.0239631
1025.94	0.0229274
1035.59	0.0238916
1045.23	0.0245324
1054.87	0.0256967
1064.51	0.0278887
1074.16	0.0313096
1083.8	0.0345791
1093.44	0.0373948
1103.08	0.0397335
1112.72	0.0433624
1122.37	0.0467296
1132.01	0.0477369
1141.65	0.0475912
1151.3	0.0470764
1160.94	0.0464323
1170.58	0.0460476
1180.22	0.0483135
1189.86	0.0492888
1199.51	0.0479787
1209.15	0.0466348
1218.79	0.0471716
1228.43	0.0478686
1238.08	0.0486888
1247.72	0.0494393
1257.36	0.0497045
1267	0.0509184
1276.64	0.0517921
1286.29	0.053644
1295.93	0.0550993
1305.57	0.0574071
1315.21	0.0592215
1324.86	0.0612842
1334.5	0.0631905
1344.14	0.064961
1353.78	0.0666932
1363.43	0.0692356
1373.07	0.0706297
1382.71	0.0717561
1392.35	0.0731261
1401.99	0.0740832
1411.64	0.0754159
1421.28	0.0778774
1430.92	0.0795208
1440.57	0.0807333
1450.21	0.0811006
1459.85	0.0809852
1469.49	0.0819723
1479.13	0.0821335
1488.78	0.0826693
1498.42	0.0848596
1508.06	0.0861156
1517.7	0.0861517
1527.35	0.0877954
1536.99	0.0894069
1546.63	0.0909078
1556.27	0.0922639
1565.91	0.0935036
1575.56	0.0946388
1585.2	0.0955363
1594.84	0.096535
1604.48	0.0978345
1614.13	0.0985546
1623.77	0.0998507
1633.41	0.100731
1643.05	0.10217
1652.7	0.102455
1662.34	0.103919
1671.98	0.104299
1681.62	0.104741
1691.27	0.104535
1700.91	0.105325
1710.55	0.105949
1720.19	0.107947
1729.84	0.108885
1739.48	0.10886
1749.12	0.108863
1758.76	0.111578
1768.4	0.113902
1778.05	0.11346
1787.69	0.114631
1797.33	0.114149
1806.97	0.115063
1816.62	0.115801
1826.26	0.116411
1835.9	0.117832
1845.54	0.11841
1855.18	0.118226
1864.83	0.119687
1874.47	0.121116
1884.11	0.119424
1893.75	0.122176
1903.4	0.122227
1913.04	0.120997
1922.68	0.122508
1932.32	0.124866
1941.97	0.125741
1951.61	0.124452
1961.25	0.126114
1970.89	0.128692
1980.54	0.132418
1990.18	0.129706
1999.82	0.130493
2009.46	0.130418
2019.11	0.127877
2028.75	0.131476
2038.39	0.132495
2048.03	0.135882
2057.67	0.135177
2067.32	0.136437
2076.96	0.138626
2086.6	0.137631
2096.24	0.136321
2105.89	0.141713
2115.53	0.141333
2125.17	0.141982
2134.81	0.138995
2144.45	0.139751
2154.1	0.134343
2163.74	0.142013
2173.38	0.141453
2183.02	0.142015
2192.67	0.146353
2202.31	0.145005
2211.95	0.14956
2221.59	0.147243
2231.24	0.147857
2240.88	0.148351
2250.52	0.14682
2260.16	0.151763
2269.8	0.151612
2279.45	0.154369
2289.09	0.154323
2298.73	0.15435
2308.38	0.154852
2318.02	0.155306
2327.66	0.156156
2337.3	0.156453
2346.94	0.156851
2356.59	0.158216
2366.23	0.15802
2375.87	0.158673
2385.51	0.159236
2395.16	0.15923
2404.8	0.160278
2414.44	0.160567
2424.08	0.161174
2433.72	0.161743
2443.37	0.161555
2453.01	0.163402
2462.65	0.163402
2472.29	0.163483
2481.94	0.165028
2491.58	0.16446
2501.22	0.166696
2510.86	0.163668
2520.51	0.165374
2530.15	0.166962
2539.79	0.167811
2549.43	0.168279
2559.07	0.168278
2568.72	0.168998
2578.36	0.169944
2588	0.172599
2597.64	0.171624
2607.29	0.172309
2616.93	0.174127
2626.57	0.173561
2636.21	0.172781
2645.86	0.174725
2655.5	0.17455
2665.14	0.175834
2674.78	0.175715
2684.43	0.176549
2694.07	0.176749
2703.71	0.17727
2713.35	0.178115
2722.99	0.178166
2732.64	0.179983
2742.28	0.179588
2751.92	0.17979
2761.56	0.181183
2771.21	0.181661
2780.85	0.182674
2790.49	0.182498
2800.13	0.183778
2809.78	0.183326
2819.42	0.18467
2829.06	0.18556
2838.7	0.18484
2848.34	0.184485
2857.99	0.18531
2867.63	0.186472
2877.27	0.185744
2886.91	0.185833
2896.56	0.187359
2906.2	0.186477
2915.84	0.187561
2925.48	0.187464
2935.13	0.18642
2944.77	0.186821
2954.41	0.188096
2964.05	0.186515
2973.7	0.185888
2983.34	0.186755
2992.98	0.187609
3002.62	0.188697
3012.26	0.190715
3021.91	0.192437
3031.55	0.192097
3041.19	0.192361
3050.83	0.193434
3060.48	0.19526
3070.12	0.194028
3079.76	0.193347
3089.4	0.19553
3099.05	0.196174
3108.69	0.196319
3118.33	0.198541
3127.97	0.197304
3137.61	0.199425
3147.26	0.198834
3156.9	0.199133
3166.54	0.201662
3176.18	0.202147
3185.83	0.201956
3195.47	0.200283
3205.11	0.198548
3214.75	0.202031
3224.4	0.199501
3234.04	0.200498
3243.68	0.203304
3253.32	0.199953
3262.97	0.201773
3272.61	0.205391
3282.25	0.204581
3291.89	0.203743
3301.53	0.206916
3311.18	0.204579
3320.82	0.204918
3330.46	0.206286
3340.1	0.203072
3349.75	0.206402
3359.39	0.207884
3369.03	0.205993
3378.67	0.207652
3388.32	0.204372
3397.96	0.208298
3407.6	0.204404
3417.24	0.20975
3426.89	0.207996
3436.53	0.209585
3446.17	0.209173
3455.81	0.209784
3465.45	0.211281
3475.1	0.20973
3484.74	0.20773
3494.38	0.207877
3504.02	0.211543
3513.67	0.207925
3523.31	0.206011
3532.95	0.207215
3542.59	0.208345
3552.24	0.20984
3561.88	0.211694
3571.52	0.211986
3581.16	0.207194
3590.8	0.209418
3600.45	0.207788
3610.09	0.21426
3619.73	0.213755
3629.37	0.209455
3639.02	0.211088
3648.66	0.213428
3658.3	0.215055
3667.94	0.214388
3677.59	0.21497
3687.23	0.217735
3696.87	0.213397
3706.51	0.214098
3716.16	0.219975
3725.8	0.214258
3735.44	0.21449
3745.08	0.223049
3754.72	0.22414
3764.37	0.217232
3774.01	0.220014
3783.65	0.220644
3793.29	0.219169
3802.94	0.223103
3812.58	0.218853
3822.22	0.225637
3831.86	0.223489
3841.51	0.220202
3851.15	0.223156
3860.79	0.223204
3870.43	0.219597
3880.07	0.228933
3889.72	0.221035
3899.36	0.223658
3909	0.225796
3918.64	0.228638
3928.29	0.228445
3937.93	0.225558
3947.57	0.229143
3957.21	0.225041
3966.86	0.227869
3976.5	0.226591
3986.14	0.229945
3995.78	0.23089
