Measurement: Infrared, Infrared Data Processed
Mineral: Brazilianite
Rruff sample: R050504
Ideal chemistry: NaAl_3_(PO_4_)_2_(OH)_4_
Locality: CÃ³rrego Frio, Minas Gerais, Brazil
Source: Marcus Origlieri
Description: Yellowish green fragment
Measured chemistry: Na_1.00_Al_3.00_(P_1.00_O_4_)_2_(OH)_4_
x	intensity
399.193	0.172598
408.835	0.159534
418.477	0.152551
428.12	0.135986
437.762	0.138038
447.404	0.148906
457.047	0.158909
466.689	0.163379
476.331	0.159221
485.974	0.130457
495.616	0.11787
505.258	0.107718
514.901	0.0979729
524.543	0.100216
534.185	0.124128
543.828	0.119553
553.47	0.124219
563.112	0.111256
572.755	0.100875
582.397	0.102193
592.039	0.0900194
601.682	0.0897876
611.324	0.0971007
620.966	0.0925465
630.609	0.0896016
640.251	0.081898
649.893	0.0629884
659.536	0.0632353
669.178	0.0716955
678.82	0.0808189
688.463	0.0821062
698.105	0.0829779
707.747	0.0861428
717.39	0.0921717
727.032	0.0858021
736.674	0.0766817
746.317	0.0700901
755.959	0.0649372
765.601	0.0551693
775.244	0.0469984
784.886	0.0464619
794.528	0.0482353
804.171	0.043562
813.813	0.0397054
823.455	0.0375613
833.098	0.0346569
842.74	0.0315755
852.382	0.0296308
862.025	0.0288505
871.667	0.0303195
881.309	0.0342698
890.952	0.0400836
900.594	0.0496694
910.236	0.0633442
919.879	0.0848755
929.521	0.116986
939.163	0.158877
948.806	0.167267
958.448	0.17058
968.09	0.177719
977.733	0.159508
987.375	0.151791
997.017	0.118847
1006.66	0.105186
1016.3	0.130214
1025.94	0.150392
1035.59	0.164006
1045.23	0.175773
1054.87	0.158761
1064.51	0.145721
1074.16	0.14761
1083.8	0.152908
1093.44	0.151022
1103.08	0.136393
1112.72	0.131348
1122.37	0.125932
1132.01	0.114709
1141.65	0.0992354
1151.3	0.0734758
1160.94	0.0550251
1170.58	0.0385106
1180.22	0.023536
1189.86	0.0139653
1199.51	0.00974459
1209.15	0.00763823
1218.79	0.00585945
1228.43	0.00531468
1238.08	0.00426305
1247.72	0.00376325
1257.36	0.00357053
1267	0.00353644
1276.64	0.00304297
1286.29	0.00266322
1295.93	0.00263698
1305.57	0.00245284
1315.21	0.00239113
1324.86	0.00278921
1334.5	0.00262613
1344.14	0.00262457
1353.78	0.00271978
1363.43	0.00293447
1373.07	0.0024419
1382.71	0.00282861
1392.35	0.00299817
1401.99	0.00306366
1411.64	0.00314156
1421.28	0.00315379
1430.92	0.003239
1440.57	0.0030886
1450.21	0.00304954
1459.85	0.00257793
1469.49	0.00318057
1479.13	0.00356686
1488.78	0.00394433
1498.42	0.0038517
1508.06	0.00390931
1517.7	0.00372945
1527.35	0.00412656
1536.99	0.0042752
1546.63	0.00429253
1556.27	0.00463661
1565.91	0.0046144
1575.56	0.00466642
1585.2	0.00484925
1594.84	0.00480696
1604.48	0.00495472
1614.13	0.00516308
1623.77	0.00484176
1633.41	0.00540258
1643.05	0.00503106
1652.7	0.0044184
1662.34	0.00474639
1671.98	0.00503065
1681.62	0.00449225
1691.27	0.00475436
1700.91	0.00460899
1710.55	0.00409066
1720.19	0.00388599
1729.84	0.00397778
1739.48	0.00268969
1749.12	0.00258265
1758.76	0.00355627
1768.4	0.00485904
1778.05	0.00460782
1787.69	0.00413095
1797.33	0.00443707
1806.97	0.00411062
1816.62	0.0041207
1826.26	0.00499633
1835.9	0.00429953
1845.54	0.0041337
1855.18	0.00538364
1864.83	0.00424714
1874.47	0.00434153
1884.11	0.00443573
1893.75	0.00409335
1903.4	0.00447758
1913.04	0.00301029
1922.68	0.00198758
1932.32	0.00432067
1941.97	0.00251688
1951.61	0.00214667
1961.25	0.000937067
1970.89	-0.00170547
1980.54	0.00595784
1990.18	0.00346755
1999.82	0.00343871
2009.46	0.00403156
2019.11	0.00450799
2028.75	0.00160063
2038.39	0.00192333
2048.03	0.00370217
2057.67	0.00503356
2067.32	0.00317675
2076.96	0.00580306
2086.6	0.00642771
2096.24	0.00437971
2105.89	0.00445875
2115.53	0.00417366
2125.17	0.00268977
2134.81	0.000985508
2144.45	0.000951763
2154.1	0.00152422
2163.74	0.00599682
2173.38	-0.000398795
2183.02	-9.05559e-05
2192.67	0.0021471
2202.31	0.00428688
2211.95	0.00551069
2221.59	0.00293755
2231.24	0.00500873
2240.88	0.00544745
2250.52	0.00379763
2260.16	0.00463761
2269.8	0.00461168
2279.45	0.00773247
2289.09	0.00949556
2298.73	0.00791412
2308.38	0.0097925
2318.02	0.00907926
2327.66	0.00802521
2337.3	0.0083802
2346.94	0.00893499
2356.59	0.00772614
2366.23	0.00836028
2375.87	0.00799118
2385.51	0.00745876
2395.16	0.00898428
2404.8	0.0095401
2414.44	0.00857539
2424.08	0.00874634
2433.72	0.00908202
2443.37	0.0107004
2453.01	0.00977475
2462.65	0.0105559
2472.29	0.0107359
2481.94	0.0103019
2491.58	0.0106114
2501.22	0.00920769
2510.86	0.0117348
2520.51	0.0097196
2530.15	0.010988
2539.79	0.00989662
2549.43	0.0107894
2559.07	0.0102838
2568.72	0.00944878
2578.36	0.0119814
2588	0.0122312
2597.64	0.0102289
2607.29	0.0114761
2616.93	0.0107294
2626.57	0.0119567
2636.21	0.0117733
2645.86	0.0124523
2655.5	0.0112957
2665.14	0.0110242
2674.78	0.0108968
2684.43	0.0103298
2694.07	0.011448
2703.71	0.0113903
2713.35	0.010807
2722.99	0.0117016
2732.64	0.0109232
2742.28	0.0121932
2751.92	0.012425
2761.56	0.0115277
2771.21	0.0127741
2780.85	0.0122996
2790.49	0.0119024
2800.13	0.0122063
2809.78	0.01369
2819.42	0.012766
2829.06	0.0125617
2838.7	0.0133129
2848.34	0.013724
2857.99	0.0140944
2867.63	0.0131852
2877.27	0.0135141
2886.91	0.0137247
2896.56	0.0138634
2906.2	0.0139542
2915.84	0.0160885
2925.48	0.0152478
2935.13	0.0155286
2944.77	0.0148526
2954.41	0.0145955
2964.05	0.0157141
2973.7	0.0166886
2983.34	0.0152204
2992.98	0.0173008
3002.62	0.0164166
3012.26	0.0173765
3021.91	0.0183168
3031.55	0.0172646
3041.19	0.018832
3050.83	0.0189062
3060.48	0.0222132
3070.12	0.0183887
3079.76	0.0198769
3089.4	0.021411
3099.05	0.0222289
3108.69	0.0242048
3118.33	0.0248193
3127.97	0.0245055
3137.61	0.0259299
3147.26	0.0264174
3156.9	0.0273957
3166.54	0.0289469
3176.18	0.0296508
3185.83	0.0324718
3195.47	0.0340848
3205.11	0.0361848
3214.75	0.0421357
3224.4	0.0460612
3234.04	0.0487054
3243.68	0.0501565
3253.32	0.0546785
3262.97	0.0558508
3272.61	0.055213
3282.25	0.0534002
3291.89	0.0482063
3301.53	0.0446801
3311.18	0.0394097
3320.82	0.0378078
3330.46	0.0374223
3340.1	0.0358356
3349.75	0.0373462
3359.39	0.0388152
3369.03	0.0358259
3378.67	0.0392953
3388.32	0.0424019
3397.96	0.0487264
3407.6	0.0581617
3417.24	0.0585309
3426.89	0.0576162
3436.53	0.0575737
3446.17	0.0729754
3455.81	0.0932469
3465.45	0.10457
3475.1	0.09714
3484.74	0.0800036
3494.38	0.0592371
3504.02	0.0466956
3513.67	0.0409665
3523.31	0.0322399
3532.95	0.0263379
3542.59	0.0300217
3552.24	0.0175037
3561.88	0.0207889
3571.52	0.0167649
3581.16	0.0202188
3590.8	0.0154144
3600.45	0.0132739
3610.09	0.0157738
3619.73	0.0137259
3629.37	0.0112503
3639.02	0.00837428
3648.66	0.0104105
3658.3	0.0170354
3667.94	0.012201
3677.59	0.0130841
3687.23	0.00955622
3696.87	0.0106237
3706.51	0.0109858
3716.16	0.0102131
3725.8	0.0115891
3735.44	0.0113267
3745.08	0.0105118
3754.72	0.0128397
3764.37	0.0093124
3774.01	0.0100349
3783.65	0.00905526
3793.29	0.0149666
3802.94	0.0128311
3812.58	0.0116598
3822.22	0.013216
3831.86	0.0146384
3841.51	0.012406
3851.15	0.0130108
3860.79	0.0148133
3870.43	0.00700369
3880.07	0.0095755
3889.72	0.011547
3899.36	0.0147869
3909	0.0103113
3918.64	0.018051
3928.29	0.0151621
3937.93	0.0111731
3947.57	0.015789
3957.21	0.0143189
3966.86	0.010583
3976.5	0.010863
3986.14	0.0138295
3995.78	0.0143073
