Measurement: Infrared, Infrared Data Processed
Mineral: Brookite
Rruff sample: R050363
Ideal chemistry: Ti^4+^O_2_
Locality: Magnet Cove, Arkansas, USA
Source: University of Arizona Mineral Museum
Description: Black fragment of a prismatic crystal associated with quartz
Measured chemistry: (Ti_0.94_Nb^5+^_0.03_Fe^3+^_0.03_)_Î£=1_O_2_
x	intensity
399.193	0.296282
408.835	0.290831
418.477	0.283665
428.12	0.265508
437.762	0.260006
447.404	0.257117
457.047	0.256809
466.689	0.267023
476.331	0.269896
485.974	0.270355
495.616	0.268406
505.258	0.270688
514.901	0.275114
524.543	0.279483
534.185	0.275267
543.828	0.273931
553.47	0.274434
563.112	0.276189
572.755	0.277386
582.397	0.273142
592.039	0.265077
601.682	0.257899
611.324	0.250433
620.966	0.241202
630.609	0.234339
640.251	0.227529
649.893	0.218718
659.536	0.211231
669.178	0.205136
678.82	0.198306
688.463	0.192652
698.105	0.185547
707.747	0.178987
717.39	0.173006
727.032	0.165903
736.674	0.159537
746.317	0.152467
755.959	0.147122
765.601	0.141216
775.244	0.135665
784.886	0.127599
794.528	0.121626
804.171	0.113819
813.813	0.108741
823.455	0.105816
833.098	0.104879
842.74	0.103037
852.382	0.101577
862.025	0.0990892
871.667	0.0945678
881.309	0.088026
890.952	0.0841614
900.594	0.0816077
910.236	0.0809598
919.879	0.0808104
929.521	0.080714
939.163	0.0815335
948.806	0.0827217
958.448	0.0838057
968.09	0.0856187
977.733	0.0859914
987.375	0.0859969
997.017	0.0859964
1006.66	0.0872078
1016.3	0.08872
1025.94	0.0905956
1035.59	0.0928517
1045.23	0.0949815
1054.87	0.0966354
1064.51	0.0977733
1074.16	0.100427
1083.8	0.104273
1093.44	0.10568
1103.08	0.105159
1112.72	0.103139
1122.37	0.10131
1132.01	0.0997058
1141.65	0.097536
1151.3	0.0957643
1160.94	0.0962461
1170.58	0.0961104
1180.22	0.0960468
1189.86	0.0964215
1199.51	0.0960258
1209.15	0.0951978
1218.79	0.094473
1228.43	0.0950518
1238.08	0.0956352
1247.72	0.0967071
1257.36	0.0975706
1267	0.0992614
1276.64	0.100191
1286.29	0.101089
1295.93	0.102338
1305.57	0.103471
1315.21	0.104743
1324.86	0.105985
1334.5	0.107825
1344.14	0.108908
1353.78	0.109437
1363.43	0.111097
1373.07	0.112196
1382.71	0.113623
1392.35	0.114641
1401.99	0.11622
1411.64	0.11736
1421.28	0.118698
1430.92	0.119374
1440.57	0.120179
1450.21	0.121397
1459.85	0.122286
1469.49	0.122309
1479.13	0.124176
1488.78	0.125555
1498.42	0.126737
1508.06	0.128856
1517.7	0.129544
1527.35	0.131006
1536.99	0.132023
1546.63	0.13286
1556.27	0.133985
1565.91	0.134586
1575.56	0.13631
1585.2	0.136764
1594.84	0.137814
1604.48	0.139714
1614.13	0.14088
1623.77	0.141947
1633.41	0.143183
1643.05	0.143922
1652.7	0.14568
1662.34	0.14508
1671.98	0.145603
1681.62	0.146647
1691.27	0.146481
1700.91	0.148133
1710.55	0.147583
1720.19	0.148774
1729.84	0.149441
1739.48	0.14913
1749.12	0.149808
1758.76	0.150796
1768.4	0.152454
1778.05	0.152903
1787.69	0.154696
1797.33	0.155309
1806.97	0.155417
1816.62	0.157655
1826.26	0.157935
1835.9	0.158395
1845.54	0.15874
1855.18	0.160461
1864.83	0.159352
1874.47	0.161791
1884.11	0.161955
1893.75	0.162647
1903.4	0.163036
1913.04	0.163795
1922.68	0.164665
1932.32	0.163726
1941.97	0.164697
1951.61	0.164694
1961.25	0.161708
1970.89	0.164507
1980.54	0.167907
1990.18	0.168262
1999.82	0.166574
2009.46	0.166603
2019.11	0.164457
2028.75	0.166754
2038.39	0.16692
2048.03	0.171565
2057.67	0.173052
2067.32	0.172433
2076.96	0.173265
2086.6	0.174191
2096.24	0.177537
2105.89	0.175861
2115.53	0.177351
2125.17	0.177197
2134.81	0.174222
2144.45	0.170862
2154.1	0.17067
2163.74	0.175728
2173.38	0.176087
2183.02	0.175702
2192.67	0.17968
2202.31	0.180355
2211.95	0.180548
2221.59	0.181109
2231.24	0.184387
2240.88	0.183865
2250.52	0.182627
2260.16	0.183621
2269.8	0.187469
2279.45	0.186191
2289.09	0.187605
2298.73	0.188877
2308.38	0.190305
2318.02	0.191054
2327.66	0.191822
2337.3	0.191372
2346.94	0.191581
2356.59	0.192068
2366.23	0.19161
2375.87	0.193694
2385.51	0.192685
2395.16	0.192869
2404.8	0.195008
2414.44	0.194538
2424.08	0.195172
2433.72	0.195504
2443.37	0.196467
2453.01	0.198262
2462.65	0.198098
2472.29	0.198663
2481.94	0.197959
2491.58	0.198707
2501.22	0.200823
2510.86	0.199128
2520.51	0.200694
2530.15	0.201213
2539.79	0.202948
2549.43	0.202644
2559.07	0.203341
2568.72	0.202361
2578.36	0.204619
2588	0.205799
2597.64	0.204824
2607.29	0.206176
2616.93	0.207099
2626.57	0.207554
2636.21	0.207726
2645.86	0.208353
2655.5	0.209923
2665.14	0.208892
2674.78	0.209508
2684.43	0.210187
2694.07	0.210112
2703.71	0.211976
2713.35	0.212694
2722.99	0.212253
2732.64	0.213566
2742.28	0.213964
2751.92	0.21432
2761.56	0.213436
2771.21	0.214706
2780.85	0.21682
2790.49	0.216194
2800.13	0.218806
2809.78	0.217854
2819.42	0.217903
2829.06	0.218796
2838.7	0.21914
2848.34	0.216176
2857.99	0.216156
2867.63	0.218991
2877.27	0.219374
2886.91	0.221124
2896.56	0.220444
2906.2	0.221167
2915.84	0.217469
2925.48	0.214114
2935.13	0.216851
2944.77	0.218915
2954.41	0.220505
2964.05	0.222612
2973.7	0.222789
2983.34	0.221417
2992.98	0.225113
3002.62	0.225319
3012.26	0.22484
3021.91	0.225185
3031.55	0.226046
3041.19	0.228008
3050.83	0.227763
3060.48	0.228734
3070.12	0.228079
3079.76	0.229501
3089.4	0.230002
3099.05	0.2319
3108.69	0.231926
3118.33	0.233426
3127.97	0.230802
3137.61	0.233048
3147.26	0.233853
3156.9	0.233205
3166.54	0.234279
3176.18	0.236366
3185.83	0.237606
3195.47	0.237647
3205.11	0.239167
3214.75	0.240344
3224.4	0.241602
3234.04	0.239805
3243.68	0.241148
3253.32	0.243498
3262.97	0.241132
3272.61	0.242927
3282.25	0.241041
3291.89	0.246265
3301.53	0.24416
3311.18	0.245754
3320.82	0.245293
3330.46	0.245229
3340.1	0.245603
3349.75	0.245398
3359.39	0.247651
3369.03	0.245897
3378.67	0.248672
3388.32	0.247751
3397.96	0.250645
3407.6	0.246882
3417.24	0.245923
3426.89	0.246416
3436.53	0.24788
3446.17	0.249702
3455.81	0.246071
3465.45	0.251628
3475.1	0.245735
3484.74	0.249711
3494.38	0.247298
3504.02	0.245277
3513.67	0.245395
3523.31	0.247626
3532.95	0.246957
3542.59	0.24874
3552.24	0.247993
3561.88	0.248905
3571.52	0.244314
3581.16	0.242455
3590.8	0.24552
3600.45	0.249993
3610.09	0.250572
3619.73	0.244182
3629.37	0.252824
3639.02	0.244766
3648.66	0.249309
3658.3	0.248493
3667.94	0.249511
3677.59	0.249307
3687.23	0.254734
3696.87	0.251447
3706.51	0.254673
3716.16	0.249676
3725.8	0.25048
3735.44	0.255243
3745.08	0.25602
3754.72	0.253104
3764.37	0.25153
3774.01	0.250658
3783.65	0.258335
3793.29	0.260161
3802.94	0.2607
3812.58	0.258994
3822.22	0.258404
3831.86	0.25868
3841.51	0.257472
3851.15	0.259747
3860.79	0.262324
3870.43	0.260391
3880.07	0.255229
3889.72	0.257722
3899.36	0.25946
3909	0.260833
3918.64	0.264454
3928.29	0.263409
3937.93	0.261273
3947.57	0.263107
3957.21	0.256392
3966.86	0.264839
3976.5	0.260406
3986.14	0.263174
3995.78	0.266746
