Measurement: Infrared, Infrared Data Processed
Mineral: Brookite
Rruff sample: R050591
Ideal chemistry: Ti^4+^O_2_
Locality: Taftan, near Dalbandi, Baluchistan, Pakistan
Source: Wayne Thompson
Description: Yellowish-brown to reddish-brown thin tabular crystal
Measured chemistry: Ti_1.00_O_2_
x	intensity
399.193	0.273386
408.835	0.266093
418.477	0.262215
428.12	0.241991
437.762	0.231492
447.404	0.216198
457.047	0.213938
466.689	0.235103
476.331	0.245278
485.974	0.25044
495.616	0.25008
505.258	0.251974
514.901	0.262492
524.543	0.26464
534.185	0.259327
543.828	0.256529
553.47	0.262663
563.112	0.269308
572.755	0.270474
582.397	0.263104
592.039	0.253824
601.682	0.242066
611.324	0.233649
620.966	0.22423
630.609	0.215856
640.251	0.206036
649.893	0.197625
659.536	0.189864
669.178	0.181063
678.82	0.174069
688.463	0.167109
698.105	0.159913
707.747	0.152443
717.39	0.144859
727.032	0.136813
736.674	0.127761
746.317	0.119289
755.959	0.11045
765.601	0.102458
775.244	0.0942548
784.886	0.0853969
794.528	0.0776356
804.171	0.0711071
813.813	0.0656734
823.455	0.0622253
833.098	0.0609131
842.74	0.0586997
852.382	0.0555818
862.025	0.0518721
871.667	0.0465876
881.309	0.038844
890.952	0.0316742
900.594	0.0275532
910.236	0.0245863
919.879	0.0227546
929.521	0.0214723
939.163	0.0207211
948.806	0.0197484
958.448	0.0192067
968.09	0.0184428
977.733	0.0180596
987.375	0.0172134
997.017	0.0163091
1006.66	0.0167784
1016.3	0.0160345
1025.94	0.0156153
1035.59	0.0154636
1045.23	0.0153682
1054.87	0.0153565
1064.51	0.0156755
1074.16	0.0157456
1083.8	0.0156932
1093.44	0.0164372
1103.08	0.0171811
1112.72	0.0179927
1122.37	0.0192385
1132.01	0.0201609
1141.65	0.0207485
1151.3	0.0217119
1160.94	0.0226556
1170.58	0.0240644
1180.22	0.0252847
1189.86	0.0271789
1199.51	0.0283144
1209.15	0.0298211
1218.79	0.0314562
1228.43	0.0330894
1238.08	0.0345666
1247.72	0.0363153
1257.36	0.0381032
1267	0.040375
1276.64	0.0420831
1286.29	0.0440063
1295.93	0.0459337
1305.57	0.0475965
1315.21	0.049603
1324.86	0.0520312
1334.5	0.0538768
1344.14	0.0557644
1353.78	0.0576664
1363.43	0.0594252
1373.07	0.061961
1382.71	0.0640793
1392.35	0.0665396
1401.99	0.0689001
1411.64	0.0705483
1421.28	0.0728559
1430.92	0.0756745
1440.57	0.0779966
1450.21	0.0791432
1459.85	0.0808302
1469.49	0.0826952
1479.13	0.0848461
1488.78	0.0873572
1498.42	0.0896222
1508.06	0.0920813
1517.7	0.0947029
1527.35	0.0961473
1536.99	0.0983926
1546.63	0.100731
1556.27	0.102341
1565.91	0.103932
1575.56	0.105576
1585.2	0.106979
1594.84	0.10904
1604.48	0.111044
1614.13	0.112224
1623.77	0.114813
1633.41	0.117062
1643.05	0.11854
1652.7	0.11979
1662.34	0.121374
1671.98	0.122797
1681.62	0.124596
1691.27	0.126307
1700.91	0.128304
1710.55	0.128886
1720.19	0.130914
1729.84	0.132359
1739.48	0.132214
1749.12	0.133584
1758.76	0.136558
1768.4	0.138455
1778.05	0.140291
1787.69	0.141686
1797.33	0.142806
1806.97	0.144051
1816.62	0.145365
1826.26	0.147006
1835.9	0.148886
1845.54	0.150164
1855.18	0.149987
1864.83	0.153118
1874.47	0.15384
1884.11	0.154326
1893.75	0.15655
1903.4	0.158037
1913.04	0.158511
1922.68	0.16007
1932.32	0.161445
1941.97	0.161006
1951.61	0.163961
1961.25	0.166573
1970.89	0.164926
1980.54	0.167375
1990.18	0.168699
1999.82	0.171525
2009.46	0.170457
2019.11	0.167521
2028.75	0.170498
2038.39	0.17475
2048.03	0.174249
2057.67	0.177561
2067.32	0.178289
2076.96	0.178821
2086.6	0.179398
2096.24	0.183043
2105.89	0.183587
2115.53	0.18543
2125.17	0.18449
2134.81	0.179471
2144.45	0.183626
2154.1	0.178344
2163.74	0.18805
2173.38	0.183592
2183.02	0.189765
2192.67	0.18976
2202.31	0.193066
2211.95	0.189392
2221.59	0.193188
2231.24	0.197092
2240.88	0.194488
2250.52	0.198585
2260.16	0.19912
2269.8	0.20005
2279.45	0.201718
2289.09	0.203048
2298.73	0.201501
2308.38	0.201607
2318.02	0.205593
2327.66	0.206528
2337.3	0.207028
2346.94	0.206476
2356.59	0.208351
2366.23	0.208612
2375.87	0.207755
2385.51	0.209172
2395.16	0.207996
2404.8	0.208881
2414.44	0.21097
2424.08	0.212219
2433.72	0.211473
2443.37	0.213038
2453.01	0.215088
2462.65	0.21528
2472.29	0.214522
2481.94	0.215823
2491.58	0.216376
2501.22	0.217022
2510.86	0.21781
2520.51	0.219697
2530.15	0.220051
2539.79	0.220581
2549.43	0.221001
2559.07	0.222523
2568.72	0.224383
2578.36	0.224933
2588	0.223757
2597.64	0.225211
2607.29	0.225827
2616.93	0.227054
2626.57	0.229681
2636.21	0.228572
2645.86	0.22892
2655.5	0.229697
2665.14	0.230655
2674.78	0.231024
2684.43	0.231217
2694.07	0.231979
2703.71	0.232195
2713.35	0.233671
2722.99	0.234637
2732.64	0.235618
2742.28	0.234743
2751.92	0.236595
2761.56	0.237056
2771.21	0.237268
2780.85	0.239331
2790.49	0.238105
2800.13	0.23842
2809.78	0.240658
2819.42	0.240943
2829.06	0.241315
2838.7	0.243037
2848.34	0.241989
2857.99	0.243912
2867.63	0.241194
2877.27	0.24487
2886.91	0.244902
2896.56	0.246009
2906.2	0.247135
2915.84	0.246706
2925.48	0.246064
2935.13	0.24749
2944.77	0.247388
2954.41	0.248343
2964.05	0.249726
2973.7	0.249929
2983.34	0.250506
2992.98	0.248839
3002.62	0.251228
3012.26	0.252735
3021.91	0.251927
3031.55	0.252256
3041.19	0.252779
3050.83	0.25458
3060.48	0.254855
3070.12	0.255597
3079.76	0.255668
3089.4	0.255697
3099.05	0.259828
3108.69	0.255939
3118.33	0.25714
3127.97	0.25759
3137.61	0.257007
3147.26	0.261063
3156.9	0.258214
3166.54	0.260953
3176.18	0.262263
3185.83	0.261207
3195.47	0.259074
3205.11	0.262633
3214.75	0.261016
3224.4	0.261077
3234.04	0.262695
3243.68	0.264417
3253.32	0.264692
3262.97	0.264078
3272.61	0.264635
3282.25	0.266479
3291.89	0.266981
3301.53	0.266608
3311.18	0.26992
3320.82	0.269912
3330.46	0.268079
3340.1	0.270228
3349.75	0.268652
3359.39	0.270971
3369.03	0.270081
3378.67	0.273427
3388.32	0.271269
3397.96	0.272662
3407.6	0.271434
3417.24	0.272552
3426.89	0.274767
3436.53	0.277197
3446.17	0.272384
3455.81	0.274416
3465.45	0.273578
3475.1	0.278265
3484.74	0.277289
3494.38	0.279139
3504.02	0.275777
3513.67	0.27813
3523.31	0.278107
3532.95	0.280035
3542.59	0.278257
3552.24	0.285514
3561.88	0.283875
3571.52	0.282882
3581.16	0.281725
3590.8	0.28387
3600.45	0.282677
3610.09	0.281702
3619.73	0.285997
3629.37	0.284457
3639.02	0.284473
3648.66	0.287724
3658.3	0.291237
3667.94	0.291662
3677.59	0.294982
3687.23	0.289922
3696.87	0.293193
3706.51	0.293481
3716.16	0.293592
3725.8	0.28972
3735.44	0.29333
3745.08	0.298491
3754.72	0.289524
3764.37	0.299189
3774.01	0.302879
3783.65	0.296624
3793.29	0.299488
3802.94	0.298344
3812.58	0.298182
3822.22	0.301931
3831.86	0.30654
3841.51	0.304158
3851.15	0.304047
3860.79	0.300681
3870.43	0.307019
3880.07	0.304908
3889.72	0.307347
3899.36	0.305672
3909	0.307232
3918.64	0.311078
3928.29	0.30626
3937.93	0.306764
3947.57	0.313105
3957.21	0.313546
3966.86	0.312547
3976.5	0.308459
3986.14	0.314578
3995.78	0.309246
