Measurement: Infrared, Infrared Data Processed
Mineral: Brucite
Rruff sample: R050455
Ideal chemistry: Mg(OH)_2_
Locality: Texas, Lancaster County, Pennsylvania, USA
Source: University of Arizona Mineral Museum
Description: Group of green tabular crystals
Measured chemistry: (Mg_0.99_Mn_0.01_)(OH)_2_
x	intensity
374.123	0.290561
383.765	0.337467
393.407	0.355694
403.05	0.347959
412.692	0.33262
422.334	0.313862
431.976	0.290782
441.619	0.273323
451.261	0.246257
460.904	0.226759
470.546	0.210443
480.188	0.193923
489.83	0.181111
499.473	0.168079
509.115	0.15595
518.758	0.143861
528.4	0.133698
538.042	0.123974
547.684	0.113855
557.327	0.105136
566.969	0.0972413
576.611	0.0921993
586.254	0.0894842
595.896	0.087329
605.538	0.0858875
615.181	0.0853189
624.823	0.0858156
634.466	0.084735
644.108	0.080427
653.75	0.0745932
663.393	0.0701728
673.035	0.0670551
682.677	0.0636041
692.319	0.058821
701.962	0.053901
711.604	0.0484982
721.246	0.0422399
730.889	0.036316
740.531	0.0313713
750.173	0.027133
759.816	0.0236401
769.458	0.0210784
779.101	0.019397
788.743	0.0177082
798.385	0.0164893
808.028	0.0152453
817.67	0.0140018
827.312	0.0127176
836.955	0.0120186
846.597	0.0116148
856.239	0.0114967
865.881	0.0109549
875.524	0.0102225
885.166	0.00949935
894.808	0.00861803
904.451	0.00831321
914.093	0.00790721
923.736	0.00808083
933.378	0.00769606
943.02	0.00791609
952.663	0.00781833
962.305	0.00779879
971.947	0.0079595
981.59	0.00807917
991.232	0.008298
1000.87	0.00855875
1010.52	0.00903022
1020.16	0.00924594
1029.8	0.00935207
1039.44	0.00986218
1049.09	0.00991736
1058.73	0.00982495
1068.37	0.00976694
1078.01	0.00965008
1087.65	0.00939685
1097.3	0.00935148
1106.94	0.00933458
1116.58	0.00952756
1126.22	0.00948297
1135.87	0.00955913
1145.51	0.00955341
1155.15	0.00996429
1164.79	0.0101985
1174.44	0.0104365
1184.08	0.010764
1193.72	0.0112057
1203.36	0.0112912
1213.01	0.0113464
1222.65	0.0114205
1232.29	0.0114426
1241.93	0.0114459
1251.58	0.0115974
1261.22	0.0119298
1270.86	0.0126356
1280.5	0.0134259
1290.14	0.0130756
1299.79	0.0129818
1309.43	0.0133162
1319.07	0.0131807
1328.71	0.0134077
1338.36	0.013537
1348	0.0142675
1357.64	0.0153785
1367.28	0.0169276
1376.92	0.0190952
1386.57	0.0203712
1396.21	0.0219436
1405.85	0.0230802
1415.49	0.02354
1425.14	0.0236757
1434.78	0.0232931
1444.42	0.0233599
1454.06	0.0227011
1463.71	0.0219995
1473.35	0.021204
1482.99	0.0217067
1492.63	0.0212163
1502.28	0.0208088
1511.92	0.0200211
1521.56	0.0185651
1531.2	0.0185692
1540.85	0.0165575
1550.49	0.017033
1560.13	0.0146663
1569.77	0.0145321
1579.41	0.0142966
1589.06	0.0140144
1598.7	0.0138695
1608.34	0.0134697
1617.98	0.0127358
1627.63	0.0128327
1637.27	0.0125559
1646.91	0.0122276
1656.55	0.0124491
1666.19	0.0121818
1675.84	0.0113242
1685.48	0.0103584
1695.12	0.010017
1704.77	0.0107281
1714.41	0.0104667
1724.05	0.0102658
1733.69	0.00827929
1743.33	0.00850617
1752.98	0.00886813
1762.62	0.00959156
1772.26	0.00910401
1781.9	0.0098052
1791.55	0.00991207
1801.19	0.0100017
1810.83	0.0101097
1820.47	0.0106201
1830.12	0.0100997
1839.76	0.0109339
1849.4	0.0106131
1859.04	0.0107868
1868.68	0.0103146
1878.33	0.0110155
1887.97	0.0107831
1897.61	0.0111057
1907.25	0.0108846
1916.9	0.0106405
1926.54	0.0112059
1936.18	0.0109872
1945.82	0.0105941
1955.46	0.0108383
1965.11	0.0113204
1974.75	0.00978116
1984.39	0.01117
1994.04	0.0113236
2003.68	0.0114878
2013.32	0.0112906
2022.96	0.010785
2032.6	0.0122893
2042.25	0.0121087
2051.89	0.0131232
2061.53	0.0132868
2071.17	0.0120911
2080.82	0.0127449
2090.46	0.0114088
2100.1	0.012583
2109.74	0.0128484
2119.39	0.0123986
2129.03	0.0116545
2138.67	0.0127029
2148.31	0.0118416
2157.95	0.0132378
2167.6	0.0155794
2177.24	0.0132888
2186.88	0.0132992
2196.52	0.0135827
2206.17	0.0139125
2215.81	0.0130122
2225.45	0.012805
2235.09	0.013255
2244.74	0.0135494
2254.38	0.0138701
2264.02	0.0139243
2273.66	0.0146832
2283.3	0.0150493
2292.95	0.0149375
2302.59	0.0144729
2312.23	0.0149645
2321.87	0.01619
2331.52	0.0151946
2341.16	0.0155531
2350.8	0.0152494
2360.44	0.0158768
2370.09	0.0152205
2379.73	0.0148788
2389.37	0.0145773
2399.01	0.0141824
2408.66	0.015087
2418.3	0.0150302
2427.94	0.0150174
2437.58	0.0152755
2447.22	0.0157086
2456.87	0.0157525
2466.51	0.0158613
2476.15	0.015541
2485.79	0.0157033
2495.44	0.0154593
2505.08	0.0158665
2514.72	0.0160721
2524.36	0.0160844
2534.01	0.0161831
2543.65	0.0159512
2553.29	0.0163457
2562.93	0.0167287
2572.57	0.0163752
2582.22	0.0169181
2591.86	0.017226
2601.5	0.0175239
2611.14	0.0173476
2620.79	0.0177743
2630.43	0.0178033
2640.07	0.0183229
2649.71	0.0184558
2659.36	0.0181266
2669	0.0178033
2678.64	0.0182818
2688.28	0.0180901
2697.93	0.0182869
2707.57	0.0186999
2717.21	0.0192301
2726.85	0.019088
2736.49	0.0190772
2746.14	0.0190651
2755.78	0.019451
2765.42	0.0195604
2775.06	0.0196424
2784.71	0.0197454
2794.35	0.0201445
2803.99	0.020399
2813.63	0.0207665
2823.28	0.0204432
2832.92	0.0212907
2842.56	0.0210175
2852.2	0.0202437
2861.84	0.0218089
2871.49	0.021337
2881.13	0.0221078
2890.77	0.0226308
2900.41	0.0225437
2910.06	0.0225462
2919.7	0.0219095
2929.34	0.0234881
2938.98	0.0238254
2948.62	0.0236938
2958.27	0.024331
2967.91	0.0239462
2977.55	0.0235441
2987.2	0.0243307
2996.84	0.0239177
3006.48	0.0238105
3016.12	0.0243965
3025.76	0.0245391
3035.41	0.0253047
3045.05	0.0250261
3054.69	0.0255992
3064.33	0.0259164
3073.98	0.0258456
3083.62	0.0263506
3093.26	0.0264109
3102.9	0.0269317
3112.55	0.0272721
3122.19	0.0271979
3131.83	0.0277811
3141.47	0.0285477
3151.11	0.0283965
3160.76	0.0289885
3170.4	0.0288559
3180.04	0.0299229
3189.68	0.030186
3199.33	0.030505
3208.97	0.0308271
3218.61	0.0315583
3228.25	0.032162
3237.9	0.0319112
3247.54	0.0332371
3257.18	0.0340184
3266.82	0.0334899
3276.47	0.0337895
3286.11	0.0333105
3295.75	0.033728
3305.39	0.0334445
3315.03	0.0333599
3324.68	0.0334882
3334.32	0.033356
3343.96	0.0334091
3353.6	0.0343321
3363.25	0.0335423
3372.89	0.0352035
3382.53	0.0338342
3392.17	0.0349259
3401.82	0.0346045
3411.46	0.0352456
3421.1	0.0349832
3430.74	0.0349867
3440.39	0.0358413
3450.03	0.0358201
3459.67	0.0363472
3469.31	0.0378353
3478.95	0.0369198
3488.6	0.0384037
3498.24	0.0391992
3507.88	0.0397278
3517.52	0.0402397
3527.17	0.040565
3536.81	0.0427667
3546.45	0.0433504
3556.09	0.0452852
3565.74	0.0459455
3575.38	0.0478303
3585.02	0.0505335
3594.66	0.0540747
3604.3	0.0582664
3613.95	0.0647091
3623.59	0.0765764
3633.23	0.0883878
3642.87	0.110401
3652.52	0.134994
3662.16	0.185256
3671.8	0.268761
3681.44	0.374865
3691.09	0.407753
3700.73	0.13655
3710.37	0.0242164
3720.01	0.0162857
3729.66	0.0133846
3739.3	0.0143879
3748.94	0.0123621
3758.58	0.0153983
3768.22	0.0172283
3777.87	0.0179945
3787.51	0.0193016
3797.15	0.0195465
3806.79	0.0179045
3816.44	0.0183785
3826.08	0.0191336
3835.72	0.0202715
3845.36	0.0207134
3855.01	0.0174056
3864.65	0.0194209
3874.29	0.021938
3883.93	0.0210232
3893.57	0.0226857
3903.22	0.0216963
3912.86	0.0234985
3922.5	0.022985
3932.14	0.0253233
3941.79	0.0252804
3951.43	0.0262947
3961.07	0.0256077
3970.71	0.026371
3980.36	0.0264179
3990	0.0272827
3999.64	0.0284299
