Measurement: Infrared, Infrared Data Processed
Mineral: Bukovskyite
Rruff sample: R050630
Ideal chemistry: Fe^3+^_2_(As^5+^O_4_)(S^6+^O_4_)(OH)7H_2_O
Locality: Kutna Hora, Bohemia, Czechoslovakia
Source: University of Arizona Mineral Museum
Description: Compact aggregate of microscopic randomly oriented colorless acicular crystals
Measured chemistry: (Fe^3+^_1.97_Al_0.03_)((As_0.98_P_0.02_)O_4_)(S_1.00_O_4_)((OH)_0.94_F_0.03_Cl_0.03_)Â·7H_2_O
x	intensity
399.193	0.178226
408.835	0.175455
418.477	0.176874
428.12	0.180459
437.762	0.179583
447.404	0.179128
457.047	0.178777
466.689	0.169278
476.331	0.162324
485.974	0.154238
495.616	0.147585
505.258	0.143512
514.901	0.139545
524.543	0.136235
534.185	0.13386
543.828	0.1338
553.47	0.135129
563.112	0.134842
572.755	0.134507
582.397	0.136574
592.039	0.139634
601.682	0.141153
611.324	0.133091
620.966	0.125435
630.609	0.119454
640.251	0.115552
649.893	0.111786
659.536	0.107349
669.178	0.104377
678.82	0.100107
688.463	0.0987711
698.105	0.0990299
707.747	0.101981
717.39	0.106104
727.032	0.112302
736.674	0.119792
746.317	0.127524
755.959	0.136349
765.601	0.149216
775.244	0.17065
784.886	0.200648
794.528	0.233593
804.171	0.254705
813.813	0.260808
823.455	0.25609
833.098	0.241609
842.74	0.220156
852.382	0.206435
862.025	0.196725
871.667	0.187768
881.309	0.177673
890.952	0.158417
900.594	0.137022
910.236	0.122894
919.879	0.113844
929.521	0.0958959
939.163	0.0761719
948.806	0.0698859
958.448	0.0715785
968.09	0.0805961
977.733	0.0976882
987.375	0.108086
997.017	0.118971
1006.66	0.128411
1016.3	0.137941
1025.94	0.159578
1035.59	0.185813
1045.23	0.208022
1054.87	0.221473
1064.51	0.218219
1074.16	0.205454
1083.8	0.19822
1093.44	0.19536
1103.08	0.194573
1112.72	0.191573
1122.37	0.181053
1132.01	0.166124
1141.65	0.147178
1151.3	0.12981
1160.94	0.119967
1170.58	0.110202
1180.22	0.0961554
1189.86	0.0824606
1199.51	0.0695475
1209.15	0.0576052
1218.79	0.0461311
1228.43	0.0361821
1238.08	0.0278776
1247.72	0.0224207
1257.36	0.0189421
1267	0.016418
1276.64	0.015491
1286.29	0.0152451
1295.93	0.0149397
1305.57	0.0148635
1315.21	0.014631
1324.86	0.0151957
1334.5	0.0152665
1344.14	0.0147141
1353.78	0.014839
1363.43	0.0150455
1373.07	0.0151383
1382.71	0.0154213
1392.35	0.0168907
1401.99	0.017965
1411.64	0.019545
1421.28	0.0211166
1430.92	0.0222784
1440.57	0.0216065
1450.21	0.0202068
1459.85	0.0187875
1469.49	0.0190418
1479.13	0.020657
1488.78	0.021398
1498.42	0.0219458
1508.06	0.0228929
1517.7	0.0237041
1527.35	0.0253021
1536.99	0.0273867
1546.63	0.028829
1556.27	0.0311044
1565.91	0.0333156
1575.56	0.0356876
1585.2	0.0388523
1594.84	0.0430633
1604.48	0.049624
1614.13	0.0584143
1623.77	0.0653889
1633.41	0.0660478
1643.05	0.0629731
1652.7	0.0557919
1662.34	0.0494227
1671.98	0.0440029
1681.62	0.0371308
1691.27	0.0302772
1700.91	0.0235808
1710.55	0.017867
1720.19	0.0156228
1729.84	0.0121241
1739.48	0.00573679
1749.12	0.00540264
1758.76	0.0108477
1768.4	0.0125247
1778.05	0.0121714
1787.69	0.0120379
1797.33	0.0114866
1806.97	0.0118694
1816.62	0.0110887
1826.26	0.0110108
1835.9	0.0111337
1845.54	0.0110321
1855.18	0.0102065
1864.83	0.00988594
1874.47	0.0117841
1884.11	0.0104197
1893.75	0.0110095
1903.4	0.0109169
1913.04	0.00986169
1922.68	0.0101446
1932.32	0.0118038
1941.97	0.00927925
1951.61	0.0100705
1961.25	0.0102199
1970.89	0.00656231
1980.54	0.0087482
1990.18	0.0103668
1999.82	0.00810746
2009.46	0.00857092
2019.11	0.00734767
2028.75	0.00764439
2038.39	0.00969812
2048.03	0.0108273
2057.67	0.0109835
2067.32	0.0125309
2076.96	0.0129246
2086.6	0.0112724
2096.24	0.0136954
2105.89	0.0139039
2115.53	0.0129164
2125.17	0.0107551
2134.81	0.00879639
2144.45	0.0122974
2154.1	0.00710974
2163.74	0.0133314
2173.38	0.00748394
2183.02	0.0129268
2192.67	0.0157405
2202.31	0.0146681
2211.95	0.0149035
2221.59	0.0166256
2231.24	0.0171317
2240.88	0.0176176
2250.52	0.0203247
2260.16	0.0223678
2269.8	0.0217837
2279.45	0.025626
2289.09	0.0248669
2298.73	0.0267198
2308.38	0.0270249
2318.02	0.0279562
2327.66	0.027486
2337.3	0.0282493
2346.94	0.0282794
2356.59	0.0290132
2366.23	0.0285755
2375.87	0.0281632
2385.51	0.0283688
2395.16	0.0278828
2404.8	0.0293051
2414.44	0.0307246
2424.08	0.0287848
2433.72	0.0294533
2443.37	0.0293784
2453.01	0.0312613
2462.65	0.0303162
2472.29	0.0306987
2481.94	0.0299071
2491.58	0.0314457
2501.22	0.0296263
2510.86	0.0309283
2520.51	0.031287
2530.15	0.0326746
2539.79	0.0317678
2549.43	0.0327202
2559.07	0.0352173
2568.72	0.0353257
2578.36	0.0345434
2588	0.0362083
2597.64	0.0387044
2607.29	0.0386087
2616.93	0.0412002
2626.57	0.0420701
2636.21	0.0433612
2645.86	0.0448786
2655.5	0.0459885
2665.14	0.047671
2674.78	0.0494579
2684.43	0.0503713
2694.07	0.0539584
2703.71	0.0552587
2713.35	0.0597009
2722.99	0.0622022
2732.64	0.064085
2742.28	0.0665158
2751.92	0.070261
2761.56	0.0740206
2771.21	0.0758674
2780.85	0.0816389
2790.49	0.0841342
2800.13	0.0876952
2809.78	0.0946902
2819.42	0.0959782
2829.06	0.0997812
2838.7	0.105653
2848.34	0.108322
2857.99	0.115462
2867.63	0.120598
2877.27	0.126259
2886.91	0.12944
2896.56	0.136109
2906.2	0.139064
2915.84	0.148279
2925.48	0.153251
2935.13	0.160907
2944.77	0.169303
2954.41	0.172563
2964.05	0.181206
2973.7	0.186481
2983.34	0.192743
2992.98	0.199674
3002.62	0.208347
3012.26	0.212141
3021.91	0.219362
3031.55	0.219667
3041.19	0.228256
3050.83	0.233612
3060.48	0.237972
3070.12	0.23891
3079.76	0.248012
3089.4	0.251016
3099.05	0.252645
3108.69	0.255173
3118.33	0.253907
3127.97	0.259904
3137.61	0.262488
3147.26	0.262471
3156.9	0.262954
3166.54	0.265699
3176.18	0.266491
3185.83	0.26657
3195.47	0.267089
3205.11	0.265051
3214.75	0.266297
3224.4	0.262155
3234.04	0.259261
3243.68	0.258898
3253.32	0.257779
3262.97	0.25701
3272.61	0.252949
3282.25	0.249377
3291.89	0.249644
3301.53	0.247239
3311.18	0.245743
3320.82	0.245888
3330.46	0.241278
3340.1	0.240968
3349.75	0.233636
3359.39	0.229032
3369.03	0.227663
3378.67	0.225648
3388.32	0.216796
3397.96	0.212921
3407.6	0.206755
3417.24	0.202017
3426.89	0.192942
3436.53	0.185857
3446.17	0.17554
3455.81	0.166514
3465.45	0.160681
3475.1	0.152017
3484.74	0.144175
3494.38	0.135657
3504.02	0.130687
3513.67	0.121358
3523.31	0.10968
3532.95	0.104726
3542.59	0.10052
3552.24	0.0889254
3561.88	0.0825564
3571.52	0.0714475
3581.16	0.0609966
3590.8	0.0527732
3600.45	0.0422847
3610.09	0.0371203
3619.73	0.0331607
3629.37	0.0253746
3639.02	0.0202866
3648.66	0.0152359
3658.3	0.0145971
3667.94	0.0148439
3677.59	0.0168338
3687.23	0.0129974
3696.87	0.0100662
3706.51	0.0118895
3716.16	0.00827206
3725.8	0.0135459
3735.44	0.0121091
3745.08	0.0142588
3754.72	0.0148755
3764.37	0.0124125
3774.01	0.00864533
3783.65	0.0116213
3793.29	0.0139801
3802.94	0.0104142
3812.58	0.00909172
3822.22	0.0106253
3831.86	0.00935028
3841.51	0.0122011
3851.15	0.0127939
3860.79	0.0145833
3870.43	0.0110881
3880.07	0.0138545
3889.72	0.0167888
3899.36	0.0178323
3909	0.015119
3918.64	0.0140845
3928.29	0.0121478
3937.93	0.0140679
3947.57	0.0162555
3957.21	0.0163694
3966.86	0.0139764
3976.5	0.020964
3986.14	0.019316
3995.78	0.0105969
