Measurement: Infrared, Infrared Data Processed
Mineral: Bustamite
Rruff sample: R040014
Ideal chemistry: CaMn^2+^Si_2_O_6_
Locality: Broken Hill, New South Wales, Australia
Source: University of Arizona Mineral Museum
Description: Orange fragment
Measured chemistry: (Ca_0.90_Mn_0.10_)_Σ=1_(Mn^2+^_0.78_Fe^2+^_0.19_Fe^3+^_0.02_Mg_0.01_)_Σ=1_(Si_1.98_Fe^3+^_0.02_)_Σ=2_O_6_
x	intensity
399.193	0.163988
408.835	0.186336
418.477	0.191789
428.12	0.218303
437.762	0.265833
447.404	0.261552
457.047	0.280645
466.689	0.245312
476.331	0.191663
485.974	0.143584
495.616	0.121143
505.258	0.122284
514.901	0.140425
524.543	0.128275
534.185	0.0998428
543.828	0.0952536
553.47	0.118377
563.112	0.107934
572.755	0.0644166
582.397	0.0373808
592.039	0.0289454
601.682	0.027955
611.324	0.0303298
620.966	0.0359863
630.609	0.0481518
640.251	0.0746104
649.893	0.111135
659.536	0.0757152
669.178	0.0407754
678.82	0.0458049
688.463	0.0829041
698.105	0.0800886
707.747	0.0370298
717.39	0.0301014
727.032	0.0310423
736.674	0.0317627
746.317	0.0327232
755.959	0.0365858
765.601	0.0415726
775.244	0.0484638
784.886	0.0567758
794.528	0.067712
804.171	0.0803526
813.813	0.0953208
823.455	0.115939
833.098	0.143202
842.74	0.180056
852.382	0.226333
862.025	0.284533
871.667	0.348189
881.309	0.39669
890.952	0.438971
900.594	0.44575
910.236	0.380841
919.879	0.30058
929.521	0.295793
939.163	0.336558
948.806	0.309108
958.448	0.238845
968.09	0.172955
977.733	0.140305
987.375	0.162658
997.017	0.219428
1006.66	0.255227
1016.3	0.267761
1025.94	0.252768
1035.59	0.204497
1045.23	0.182488
1054.87	0.18547
1064.51	0.197703
1074.16	0.210258
1083.8	0.201231
1093.44	0.163341
1103.08	0.118364
1112.72	0.0837147
1122.37	0.0557167
1132.01	0.032859
1141.65	0.0190918
1151.3	0.0134719
1160.94	0.0109552
1170.58	0.0091647
1180.22	0.00812429
1189.86	0.0071362
1199.51	0.00622405
1209.15	0.00535263
1218.79	0.0045606
1228.43	0.00403927
1238.08	0.00367046
1247.72	0.0036666
1257.36	0.00395478
1267	0.00390307
1276.64	0.00350689
1286.29	0.0034404
1295.93	0.00358108
1305.57	0.00368018
1315.21	0.00414809
1324.86	0.00439106
1334.5	0.00472391
1344.14	0.00494444
1353.78	0.00548754
1363.43	0.00599784
1373.07	0.00621258
1382.71	0.00628616
1392.35	0.00673442
1401.99	0.00760671
1411.64	0.00905909
1421.28	0.0103161
1430.92	0.0110804
1440.57	0.0114894
1450.21	0.0122413
1459.85	0.0123088
1469.49	0.0121238
1479.13	0.0116306
1488.78	0.0108988
1498.42	0.0103077
1508.06	0.00969253
1517.7	0.00918341
1527.35	0.00915829
1536.99	0.00993655
1546.63	0.010929
1556.27	0.0119893
1565.91	0.0131325
1575.56	0.0143947
1585.2	0.0148315
1594.84	0.0144239
1604.48	0.0138132
1614.13	0.0128872
1623.77	0.0121482
1633.41	0.0113502
1643.05	0.0104556
1652.7	0.00999764
1662.34	0.00947881
1671.98	0.00873343
1681.62	0.00800195
1691.27	0.00775586
1700.91	0.00758803
1710.55	0.00759924
1720.19	0.00743375
1729.84	0.00703863
1739.48	0.00640415
1749.12	0.00647336
1758.76	0.00690985
1768.4	0.00645607
1778.05	0.00669673
1787.69	0.00681448
1797.33	0.00656183
1806.97	0.00656364
1816.62	0.00562253
1826.26	0.0063258
1835.9	0.00620095
1845.54	0.00668649
1855.18	0.00641015
1864.83	0.00668499
1874.47	0.00663691
1884.11	0.00652169
1893.75	0.00718004
1903.4	0.00745291
1913.04	0.00752035
1922.68	0.00751879
1932.32	0.00720869
1941.97	0.00655903
1951.61	0.00764863
1961.25	0.00731884
1970.89	0.00738713
1980.54	0.00936299
1990.18	0.00685295
1999.82	0.00706475
2009.46	0.00630852
2019.11	0.00574465
2028.75	0.00572445
2038.39	0.00606194
2048.03	0.00743699
2057.67	0.00637534
2067.32	0.00724089
2076.96	0.00873701
2086.6	0.00777118
2096.24	0.00721349
2105.89	0.00855669
2115.53	0.00791089
2125.17	0.00606538
2134.81	0.00454813
2144.45	0.00471041
2154.1	0.000966275
2163.74	0.00909141
2173.38	0.00737171
2183.02	0.00855606
2192.67	0.010044
2202.31	0.0087154
2211.95	0.011091
2221.59	0.0119991
2231.24	0.0128139
2240.88	0.0125855
2250.52	0.0126397
2260.16	0.0131017
2269.8	0.0137259
2279.45	0.0148612
2289.09	0.0142949
2298.73	0.0134743
2308.38	0.0140662
2318.02	0.014432
2327.66	0.0136215
2337.3	0.0133024
2346.94	0.0135689
2356.59	0.0136437
2366.23	0.0131021
2375.87	0.0131566
2385.51	0.0129256
2395.16	0.0132045
2404.8	0.0128906
2414.44	0.013843
2424.08	0.0135819
2433.72	0.0138762
2443.37	0.0142084
2453.01	0.0145923
2462.65	0.0140917
2472.29	0.0140074
2481.94	0.0141689
2491.58	0.0146173
2501.22	0.0144944
2510.86	0.0149405
2520.51	0.0146961
2530.15	0.0147342
2539.79	0.0146712
2549.43	0.0144947
2559.07	0.0151067
2568.72	0.0159337
2578.36	0.0158666
2588	0.0162666
2597.64	0.0162978
2607.29	0.0164685
2616.93	0.0172821
2626.57	0.0169083
2636.21	0.017095
2645.86	0.0169939
2655.5	0.0169209
2665.14	0.0163594
2674.78	0.0166085
2684.43	0.0163172
2694.07	0.0164349
2703.71	0.0169937
2713.35	0.0165773
2722.99	0.0171327
2732.64	0.0174418
2742.28	0.0172179
2751.92	0.0172463
2761.56	0.0173538
2771.21	0.0179322
2780.85	0.0178441
2790.49	0.0181402
2800.13	0.0181156
2809.78	0.0183834
2819.42	0.0185309
2829.06	0.0188293
2838.7	0.0195051
2848.34	0.0205617
2857.99	0.0197852
2867.63	0.0202474
2877.27	0.0200873
2886.91	0.019992
2896.56	0.020437
2906.2	0.0207432
2915.84	0.0223422
2925.48	0.0218328
2935.13	0.0216812
2944.77	0.0210683
2954.41	0.0206963
2964.05	0.0207102
2973.7	0.0203936
2983.34	0.0201401
2992.98	0.0198784
3002.62	0.0199553
3012.26	0.0205227
3021.91	0.0209724
3031.55	0.0204915
3041.19	0.0210575
3050.83	0.0210254
3060.48	0.021519
3070.12	0.0211116
3079.76	0.0217513
3089.4	0.021461
3099.05	0.0221519
3108.69	0.0226374
3118.33	0.0222733
3127.97	0.0225593
3137.61	0.0229813
3147.26	0.0228482
3156.9	0.0234821
3166.54	0.0234562
3176.18	0.0231418
3185.83	0.0238792
3195.47	0.0241634
3205.11	0.0236582
3214.75	0.024084
3224.4	0.0238838
3234.04	0.023784
3243.68	0.0243139
3253.32	0.0242793
3262.97	0.0249186
3272.61	0.0249011
3282.25	0.0248766
3291.89	0.0253342
3301.53	0.024686
3311.18	0.025464
3320.82	0.0251786
3330.46	0.0248495
3340.1	0.0259884
3349.75	0.0254616
3359.39	0.025918
3369.03	0.0256423
3378.67	0.0254652
3388.32	0.0255031
3397.96	0.0262374
3407.6	0.025185
3417.24	0.0257661
3426.89	0.025348
3436.53	0.0252847
3446.17	0.0256395
3455.81	0.0259365
3465.45	0.025229
3475.1	0.0251428
3484.74	0.0249839
3494.38	0.0252554
3504.02	0.0247433
3513.67	0.0248339
3523.31	0.0257143
3532.95	0.0251266
3542.59	0.0243063
3552.24	0.0248078
3561.88	0.0238769
3571.52	0.0250867
3581.16	0.0233045
3590.8	0.0240573
3600.45	0.022713
3610.09	0.0232049
3619.73	0.0231768
3629.37	0.0229568
3639.02	0.0227942
3648.66	0.0228329
3658.3	0.0223014
3667.94	0.0224327
3677.59	0.0221857
3687.23	0.0223009
3696.87	0.0226359
3706.51	0.0236258
3716.16	0.022586
3725.8	0.0231861
3735.44	0.0241799
3745.08	0.0236456
3754.72	0.0233849
3764.37	0.0240419
3774.01	0.0232564
3783.65	0.0238643
3793.29	0.0233237
3802.94	0.0234159
3812.58	0.0234498
3822.22	0.0231684
3831.86	0.0243871
3841.51	0.024358
3851.15	0.023178
3860.79	0.0241704
3870.43	0.0244904
3880.07	0.0239167
3889.72	0.0242212
3899.36	0.0241185
3909	0.0255467
3918.64	0.0239868
3928.29	0.0235506
3937.93	0.0245827
3947.57	0.0247618
3957.21	0.0236212
3966.86	0.0241168
3976.5	0.0224414
3986.14	0.0236439
3995.78	0.0246395
