Measurement: Infrared, Infrared Data Processed
Mineral: Calcite
Rruff sample: R050307
Ideal chemistry: CaCO_3_
Locality: Zaire
Source: Eugene Schlepp
Description: Group of pink prismatic crystals
Measured chemistry: Ca_1.00_CO_3_
x	intensity
399.193	0.0226961
408.835	0.0176756
418.477	0.0191418
428.12	0.0174038
437.762	0.0138039
447.404	0.0131942
457.047	0.0137683
466.689	0.0110235
476.331	0.0115981
485.974	0.0106952
495.616	0.010095
505.258	0.00935209
514.901	0.00835216
524.543	0.00820261
534.185	0.00733449
543.828	0.00734815
553.47	0.00700357
563.112	0.00733805
572.755	0.00698585
582.397	0.00745181
592.039	0.00733397
601.682	0.00763205
611.324	0.00745616
620.966	0.00703304
630.609	0.0071391
640.251	0.0072762
649.893	0.0076418
659.536	0.00819155
669.178	0.00847654
678.82	0.00879468
688.463	0.00967067
698.105	0.0132211
707.747	0.0421914
717.39	0.0281313
727.032	0.00815772
736.674	0.00858767
746.317	0.00783585
755.959	0.00873944
765.601	0.00984293
775.244	0.0104472
784.886	0.0115943
794.528	0.0115984
804.171	0.0118848
813.813	0.0130219
823.455	0.0147823
833.098	0.0170746
842.74	0.0243321
852.382	0.0353803
862.025	0.102706
871.667	0.298451
881.309	0.132847
890.952	0.0150199
900.594	0.013092
910.236	0.0132812
919.879	0.0139593
929.521	0.0152538
939.163	0.0158411
948.806	0.0167279
958.448	0.0173469
968.09	0.01805
977.733	0.0188858
987.375	0.0199202
997.017	0.0212714
1006.66	0.022529
1016.3	0.0234561
1025.94	0.0245928
1035.59	0.0252175
1045.23	0.0269288
1054.87	0.0280853
1064.51	0.0298811
1074.16	0.0312048
1083.8	0.0346309
1093.44	0.0347011
1103.08	0.0346741
1112.72	0.0363359
1122.37	0.0384863
1132.01	0.0416897
1141.65	0.0446516
1151.3	0.0488296
1160.94	0.0533857
1170.58	0.0563746
1180.22	0.0603027
1189.86	0.0642266
1199.51	0.0681259
1209.15	0.0733687
1218.79	0.0798516
1228.43	0.0879005
1238.08	0.0966151
1247.72	0.105746
1257.36	0.116659
1267	0.129223
1276.64	0.144106
1286.29	0.160595
1295.93	0.181717
1305.57	0.206187
1315.21	0.233331
1324.86	0.263024
1334.5	0.299155
1344.14	0.34228
1353.78	0.39227
1363.43	0.451463
1373.07	0.514836
1382.71	0.577211
1392.35	0.624505
1401.99	0.612369
1411.64	0.568101
1421.28	0.498786
1430.92	0.4425
1440.57	0.392452
1450.21	0.345741
1459.85	0.302407
1469.49	0.265641
1479.13	0.235226
1488.78	0.204626
1498.42	0.174281
1508.06	0.146326
1517.7	0.119196
1527.35	0.0944658
1536.99	0.0698957
1546.63	0.0435768
1556.27	0.0271238
1565.91	0.0211859
1575.56	0.0182738
1585.2	0.0168874
1594.84	0.0128814
1604.48	0.00968795
1614.13	0.0084612
1623.77	0.00692458
1633.41	0.00601233
1643.05	0.004911
1652.7	0.00593455
1662.34	0.00428386
1671.98	0.00392528
1681.62	0.00299613
1691.27	0.00212716
1700.91	0.00246684
1710.55	0.000268926
1720.19	0.000512065
1729.84	-0.00143298
1739.48	-0.00421036
1749.12	-0.00332007
1758.76	0.000746166
1768.4	0.00297561
1778.05	0.00428613
1787.69	0.00978185
1797.33	0.0219407
1806.97	0.00576063
1816.62	0.00243128
1826.26	0.0021129
1835.9	0.00125118
1845.54	0.00246134
1855.18	0.00285343
1864.83	0.00223534
1874.47	0.00262347
1884.11	0.00197831
1893.75	0.00312474
1903.4	0.00222428
1913.04	0.00179502
1922.68	0.00353213
1932.32	0.00254279
1941.97	0.00348421
1951.61	0.00164479
1961.25	0.000991911
1970.89	0.00211315
1980.54	0.00438184
1990.18	0.00491175
1999.82	0.00236254
2009.46	0.00419104
2019.11	0.00764645
2028.75	0.00226421
2038.39	0.00480444
2048.03	0.00443869
2057.67	0.00352977
2067.32	0.00592139
2076.96	0.00359878
2086.6	0.00389492
2096.24	0.00444309
2105.89	0.00440708
2115.53	0.00497336
2125.17	0.00297753
2134.81	0.00164541
2144.45	0.000341408
2154.1	0.00173736
2163.74	0.00532893
2173.38	0.00891068
2183.02	0.00728692
2192.67	0.00576154
2202.31	0.00765953
2211.95	0.00873704
2221.59	0.00671894
2231.24	0.004143
2240.88	0.00591355
2250.52	0.00483265
2260.16	0.00831636
2269.8	0.00555838
2279.45	0.00827109
2289.09	0.00827977
2298.73	0.00591367
2308.38	0.00780902
2318.02	0.00831261
2327.66	0.00854472
2337.3	0.00902649
2346.94	0.0068298
2356.59	0.00905417
2366.23	0.00937594
2375.87	0.00568679
2385.51	0.0059535
2395.16	0.00546773
2404.8	0.00651938
2414.44	0.00500554
2424.08	0.00680446
2433.72	0.00670191
2443.37	0.00670573
2453.01	0.0065189
2462.65	0.00696742
2472.29	0.00683286
2481.94	0.00798781
2491.58	0.0120927
2501.22	0.0163394
2510.86	0.0218725
2520.51	0.0188439
2530.15	0.0144476
2539.79	0.009501
2549.43	0.00720546
2559.07	0.00841854
2568.72	0.00691015
2578.36	0.00742644
2588	0.00804498
2597.64	0.008726
2607.29	0.00796624
2616.93	0.00692024
2626.57	0.0040785
2636.21	0.00509544
2645.86	0.0048509
2655.5	0.00599987
2665.14	0.00385899
2674.78	0.00437725
2684.43	0.00336951
2694.07	0.00320813
2703.71	0.00249932
2713.35	0.00500914
2722.99	0.00379349
2732.64	0.00399347
2742.28	0.00291577
2751.92	0.00387375
2761.56	0.00299699
2771.21	0.00370992
2780.85	0.00447932
2790.49	0.00276348
2800.13	0.00458982
2809.78	0.00514572
2819.42	0.00402057
2829.06	0.00347151
2838.7	0.00627545
2848.34	0.00489632
2857.99	0.00900844
2867.63	0.0100046
2877.27	0.0100973
2886.91	0.00799658
2896.56	0.00803862
2906.2	0.00523695
2915.84	0.00567515
2925.48	0.00570323
2935.13	0.00859174
2944.77	0.00846643
2954.41	0.00595383
2964.05	0.0118158
2973.7	0.0110094
2983.34	0.0146391
2992.98	0.0115694
3002.62	0.0115789
3012.26	0.0101331
3021.91	0.0107992
3031.55	0.00831217
3041.19	0.0108959
3050.83	0.00831844
3060.48	0.0103869
3070.12	0.0083793
3079.76	0.0104521
3089.4	0.0131406
3099.05	0.0126151
3108.69	0.0135774
3118.33	0.0126156
3127.97	0.0150109
3137.61	0.0126864
3147.26	0.013532
3156.9	0.0108102
3166.54	0.0154316
3176.18	0.0124998
3185.83	0.0167366
3195.47	0.0149173
3205.11	0.0140325
3214.75	0.0130854
3224.4	0.0171896
3234.04	0.0151211
3243.68	0.0139925
3253.32	0.0139954
3262.97	0.0157713
3272.61	0.0133142
3282.25	0.0152755
3291.89	0.013784
3301.53	0.0155435
3311.18	0.0158077
3320.82	0.012116
3330.46	0.0163281
3340.1	0.0167879
3349.75	0.0178877
3359.39	0.0146838
3369.03	0.014666
3378.67	0.0142943
3388.32	0.0156401
3397.96	0.0158397
3407.6	0.0164091
3417.24	0.0161114
3426.89	0.0147039
3436.53	0.0175001
3446.17	0.0172016
3455.81	0.0171878
3465.45	0.0148678
3475.1	0.015015
3484.74	0.017284
3494.38	0.0161908
3504.02	0.0166058
3513.67	0.0170151
3523.31	0.0166945
3532.95	0.0147748
3542.59	0.0157034
3552.24	0.020342
3561.88	0.0148157
3571.52	0.0158531
3581.16	0.0153482
3590.8	0.0127143
3600.45	0.0176191
3610.09	0.016686
3619.73	0.0148575
3629.37	0.0164736
3639.02	0.0138505
3648.66	0.0176203
3658.3	0.0194184
3667.94	0.0177599
3677.59	0.0155695
3687.23	0.0166245
3696.87	0.017712
3706.51	0.0198522
3716.16	0.0159117
3725.8	0.0195926
3735.44	0.0147717
3745.08	0.0214974
3754.72	0.020234
3764.37	0.0167868
3774.01	0.0127824
3783.65	0.0172762
3793.29	0.0194487
3802.94	0.0151416
3812.58	0.0170492
3822.22	0.020374
3831.86	0.0182378
3841.51	0.0197595
3851.15	0.0197237
3860.79	0.0201517
3870.43	0.021834
3880.07	0.0196483
3889.72	0.0194068
3899.36	0.0194164
3909	0.0193106
3918.64	0.0139164
3928.29	0.0186746
3937.93	0.0179293
3947.57	0.0228801
3957.21	0.025164
3966.86	0.0222237
3976.5	0.0160738
3986.14	0.0229476
3995.78	0.0193631
