Measurement: Infrared, Infrared Data Processed
Mineral: Calcite
Rruff sample: R050048
Ideal chemistry: CaCO_3_
Locality: Magdalena, New Mexico, USA
Source: University of Arizona Mineral Museum
Description: Colorless massive
Measured chemistry: (Ca_0.99_Zn_0.01_)CO_3_
x	intensity
399.193	0
408.835	0.0224937
418.477	0.0190593
428.12	0.0173871
437.762	0.0161379
447.404	0.0138068
457.047	0.0129391
466.689	0.010779
476.331	0.0111787
485.974	0.0102071
495.616	0.00976005
505.258	0.00904705
514.901	0.00805964
524.543	0.00765716
534.185	0.00694226
543.828	0.00633415
553.47	0.00638433
563.112	0.00610707
572.755	0.00575097
582.397	0.00631098
592.039	0.00679975
601.682	0.00642296
611.324	0.00571241
620.966	0.00620834
630.609	0.00589751
640.251	0.00604726
649.893	0.00626053
659.536	0.00617493
669.178	0.00659648
678.82	0.00708911
688.463	0.00854863
698.105	0.0111987
707.747	0.0384738
717.39	0.037312
727.032	0.00782318
736.674	0.00733129
746.317	0.00754824
755.959	0.00756405
765.601	0.00861964
775.244	0.00924834
784.886	0.00942587
794.528	0.00959461
804.171	0.0103569
813.813	0.0111138
823.455	0.0123019
833.098	0.014553
842.74	0.0205239
852.382	0.0301343
862.025	0.0924504
871.667	0.299899
881.309	0.135792
890.952	0.0132307
900.594	0.0112254
910.236	0.0116093
919.879	0.0120651
929.521	0.0129913
939.163	0.0136545
948.806	0.0143712
958.448	0.014452
968.09	0.0153378
977.733	0.0162351
987.375	0.0171222
997.017	0.0177396
1006.66	0.0187504
1016.3	0.019655
1025.94	0.0206185
1035.59	0.020828
1045.23	0.0215037
1054.87	0.0228448
1064.51	0.0245068
1074.16	0.0264712
1083.8	0.0297052
1093.44	0.0292432
1103.08	0.02914
1112.72	0.030942
1122.37	0.0332196
1132.01	0.0354154
1141.65	0.0386447
1151.3	0.0422825
1160.94	0.0463247
1170.58	0.0494083
1180.22	0.0523425
1189.86	0.0553233
1199.51	0.0584903
1209.15	0.0629304
1218.79	0.0681147
1228.43	0.0747533
1238.08	0.0820199
1247.72	0.0899212
1257.36	0.0996593
1267	0.110838
1276.64	0.124044
1286.29	0.138636
1295.93	0.156749
1305.57	0.178746
1315.21	0.20404
1324.86	0.233272
1334.5	0.268991
1344.14	0.31322
1353.78	0.365469
1363.43	0.429865
1373.07	0.501165
1382.71	0.57287
1392.35	0.625647
1401.99	0.610624
1411.64	0.570597
1421.28	0.511628
1430.92	0.459644
1440.57	0.413413
1450.21	0.368648
1459.85	0.323993
1469.49	0.283413
1479.13	0.247534
1488.78	0.214044
1498.42	0.182019
1508.06	0.152056
1517.7	0.12341
1527.35	0.0972841
1536.99	0.0709853
1546.63	0.0448204
1556.27	0.0259822
1565.91	0.0198119
1575.56	0.0162576
1585.2	0.0149884
1594.84	0.0118605
1604.48	0.00923459
1614.13	0.00713899
1623.77	0.00610874
1633.41	0.00455717
1643.05	0.00410996
1652.7	0.00302204
1662.34	0.00316435
1671.98	0.00316061
1681.62	0.00292272
1691.27	0.00290601
1700.91	0.00314286
1710.55	0.00258743
1720.19	0.00267187
1729.84	0.00233262
1739.48	0.00182902
1749.12	0.00175812
1758.76	0.00198243
1768.4	0.00277222
1778.05	0.00403228
1787.69	0.00938632
1797.33	0.0184001
1806.97	0.00614932
1816.62	0.00227358
1826.26	0.00217534
1835.9	0.00138273
1845.54	0.00209842
1855.18	0.00150716
1864.83	0.00196796
1874.47	0.00159242
1884.11	0.00108193
1893.75	0.00106815
1903.4	0.000332001
1913.04	0.00143753
1922.68	0.000530196
1932.32	0.000533431
1941.97	0.00168394
1951.61	0.00033604
1961.25	0.000625206
1970.89	0.0010332
1980.54	0.00196022
1990.18	0.00357449
1999.82	0.00102479
2009.46	0.00231167
2019.11	0.000448453
2028.75	0.00209417
2038.39	0.00251168
2048.03	0.00210964
2057.67	0.00234917
2067.32	0.00247911
2076.96	0.00338789
2086.6	0.00321114
2096.24	0.00340718
2105.89	0.00357304
2115.53	0.00367999
2125.17	0.00221471
2134.81	0.00197139
2144.45	0.000269239
2154.1	-0.000105925
2163.74	0.00554226
2173.38	0.00408964
2183.02	0.00440439
2192.67	0.0037566
2202.31	0.00436488
2211.95	0.00496315
2221.59	0.00405651
2231.24	0.00429401
2240.88	0.00537436
2250.52	0.00439299
2260.16	0.00550516
2269.8	0.00641205
2279.45	0.00643384
2289.09	0.00681618
2298.73	0.00651898
2308.38	0.0065938
2318.02	0.00665538
2327.66	0.00579018
2337.3	0.00610016
2346.94	0.00582619
2356.59	0.00568642
2366.23	0.00486338
2375.87	0.00464188
2385.51	0.00468453
2395.16	0.00542222
2404.8	0.00497981
2414.44	0.00505975
2424.08	0.00572437
2433.72	0.00494208
2443.37	0.00661396
2453.01	0.00693608
2462.65	0.00649522
2472.29	0.00767271
2481.94	0.00897527
2491.58	0.0101972
2501.22	0.013917
2510.86	0.0174538
2520.51	0.0164082
2530.15	0.0127847
2539.79	0.0100546
2549.43	0.00935181
2559.07	0.00808567
2568.72	0.00855029
2578.36	0.00835841
2588	0.00797902
2597.64	0.00889267
2607.29	0.00693039
2616.93	0.00661268
2626.57	0.00662777
2636.21	0.0060701
2645.86	0.00520953
2655.5	0.00620225
2665.14	0.00486434
2674.78	0.00444183
2684.43	0.00416055
2694.07	0.00408027
2703.71	0.00359937
2713.35	0.00348992
2722.99	0.00315913
2732.64	0.00319284
2742.28	0.00312912
2751.92	0.00259774
2761.56	0.00288391
2771.21	0.00354563
2780.85	0.00301664
2790.49	0.00352894
2800.13	0.00289925
2809.78	0.00365838
2819.42	0.00377035
2829.06	0.00444895
2838.7	0.00491448
2848.34	0.00499153
2857.99	0.00610976
2867.63	0.00808535
2877.27	0.00731155
2886.91	0.0067257
2896.56	0.00552197
2906.2	0.00578981
2915.84	0.00537514
2925.48	0.00485422
2935.13	0.00526674
2944.77	0.00621075
2954.41	0.0055884
2964.05	0.00697018
2973.7	0.00711084
2983.34	0.00741194
2992.98	0.00635258
3002.62	0.00652622
3012.26	0.0062541
3021.91	0.00600693
3031.55	0.00617444
3041.19	0.00666423
3050.83	0.00636881
3060.48	0.00836504
3070.12	0.00852253
3079.76	0.00836055
3089.4	0.0096972
3099.05	0.00917898
3108.69	0.00944195
3118.33	0.00994723
3127.97	0.00948778
3137.61	0.0105061
3147.26	0.00982396
3156.9	0.00948631
3166.54	0.0106476
3176.18	0.0109425
3185.83	0.0101503
3195.47	0.0095925
3205.11	0.0113609
3214.75	0.0114261
3224.4	0.0109083
3234.04	0.0118992
3243.68	0.0104483
3253.32	0.011859
3262.97	0.0117204
3272.61	0.0113846
3282.25	0.0103577
3291.89	0.0111653
3301.53	0.0111396
3311.18	0.0101688
3320.82	0.011316
3330.46	0.0107574
3340.1	0.0103367
3349.75	0.011379
3359.39	0.010423
3369.03	0.0109122
3378.67	0.0125428
3388.32	0.0117231
3397.96	0.0113655
3407.6	0.0123265
3417.24	0.0113133
3426.89	0.0110332
3436.53	0.0112089
3446.17	0.0110651
3455.81	0.0121544
3465.45	0.0119305
3475.1	0.0105035
3484.74	0.0125853
3494.38	0.0127179
3504.02	0.0119331
3513.67	0.0133137
3523.31	0.0134534
3532.95	0.0119292
3542.59	0.0116916
3552.24	0.0116893
3561.88	0.0133232
3571.52	0.0142674
3581.16	0.0117417
3590.8	0.0125674
3600.45	0.0111027
3610.09	0.0118662
3619.73	0.0121147
3629.37	0.014375
3639.02	0.0138444
3648.66	0.012315
3658.3	0.0127637
3667.94	0.0126488
3677.59	0.0121385
3687.23	0.0115705
3696.87	0.0138867
3706.51	0.0125178
3716.16	0.0134202
3725.8	0.0122599
3735.44	0.0118596
3745.08	0.0122605
3754.72	0.0150216
3764.37	0.0135002
3774.01	0.0127756
3783.65	0.0133375
3793.29	0.0136118
3802.94	0.0141256
3812.58	0.0150598
3822.22	0.011936
3831.86	0.0120868
3841.51	0.0127703
3851.15	0.012546
3860.79	0.0116094
3870.43	0.0133981
3880.07	0.0134926
3889.72	0.0127101
3899.36	0.0156493
3909	0.0139933
3918.64	0.0139957
3928.29	0.0148462
3937.93	0.0151909
3947.57	0.0140889
3957.21	0.0126423
3966.86	0.0160998
3976.5	0.014976
3986.14	0.0140784
3995.78	0.0153575
