Measurement: Infrared, Infrared Data Processed
Mineral: Calcite
Rruff sample: R050128
Ideal chemistry: CaCO_3_
Locality: Tie Siding, Albany County, Wyoming, USA
Source: Dave Bunk Minerals
Description: Pseudomorph after aragonite, not single crystal. Trace of aragonite still present.
Measured chemistry: Ca_1.00_CO_3_
x	intensity
50.1401	0.0203087
52.0686	0.0228218
53.9971	0.0216729
55.9255	0.0247109
57.854	0.0281625
59.7825	0.027473
61.7109	0.0239702
63.6394	0.0270786
65.5679	0.0273513
67.4963	0.02953
69.4248	0.0340355
71.3533	0.0415754
73.2817	0.0388388
75.2102	0.0381942
77.1387	0.0406577
79.0671	0.0428817
80.9956	0.0412095
82.9241	0.0443498
84.8525	0.0492691
86.781	0.049739
88.7095	0.0481614
90.6379	0.0472593
92.5664	0.0481317
94.4948	0.0516488
96.4233	0.0518303
98.3518	0.0522071
100.28	0.0508244
102.209	0.0488067
104.137	0.0459306
106.066	0.0434846
107.994	0.0421334
109.923	0.0407763
111.851	0.037585
113.779	0.0344165
115.708	0.0315273
117.636	0.0292792
119.565	0.0281311
121.493	0.0264733
123.422	0.0252321
125.35	0.0254456
127.279	0.0245596
129.207	0.0229492
131.136	0.0219587
133.064	0.0204225
134.993	0.0191821
136.921	0.0193463
138.85	0.0200641
140.778	0.0207076
142.707	0.0213058
144.635	0.022284
146.563	0.0236689
148.492	0.0255096
150.42	0.0278231
152.349	0.0296465
154.277	0.0308562
156.206	0.0328495
158.134	0.0354135
160.063	0.0374322
161.991	0.0388589
163.92	0.041105
165.848	0.0437237
167.777	0.0457836
169.705	0.047814
171.633	0.0499679
173.562	0.0514446
175.49	0.0529268
177.419	0.0545658
179.347	0.0566252
181.276	0.0583939
183.204	0.0600609
185.133	0.0625863
187.061	0.0646503
188.99	0.0661918
190.918	0.0688842
192.847	0.0713687
194.775	0.0737834
196.704	0.0760449
198.632	0.0790695
200.56	0.0816151
202.489	0.0846082
204.417	0.0870122
206.346	0.0894013
208.274	0.0921058
210.203	0.0948685
212.131	0.0975282
214.06	0.101098
215.988	0.104015
217.917	0.106685
219.845	0.108354
221.774	0.109743
223.702	0.109186
225.631	0.106673
227.559	0.102048
229.488	0.0954429
231.416	0.088438
233.344	0.08135
235.273	0.0747006
237.201	0.0697108
239.13	0.0675155
241.058	0.0682823
242.987	0.0708542
244.915	0.0745554
246.844	0.0783184
248.772	0.0830034
250.701	0.0874445
252.629	0.0915989
254.558	0.0960813
256.486	0.100293
258.414	0.103865
260.343	0.107228
262.271	0.110538
264.2	0.114342
266.128	0.117339
268.057	0.120333
269.985	0.123228
271.914	0.125969
273.842	0.128493
275.771	0.131626
277.699	0.134659
279.628	0.137532
281.556	0.139315
283.485	0.141318
285.413	0.143316
287.341	0.145143
289.27	0.146456
291.198	0.147988
293.127	0.148594
295.055	0.148724
296.984	0.147928
298.912	0.146142
300.841	0.144
302.769	0.141578
304.698	0.138527
306.626	0.135687
308.555	0.13215
310.483	0.128363
312.411	0.124354
314.34	0.12059
316.269	0.116706
318.197	0.112828
320.125	0.109475
322.054	0.1061
323.982	0.102689
325.911	0.0997068
327.839	0.0965126
329.768	0.0930821
331.696	0.0898194
333.625	0.087124
335.553	0.0845763
337.482	0.0818385
339.41	0.0792958
341.339	0.0768127
343.267	0.0744309
345.195	0.0722548
347.124	0.0701009
349.052	0.0680328
350.981	0.066124
352.909	0.0639828
354.838	0.0620369
356.766	0.0601733
358.695	0.058443
360.623	0.0565635
362.552	0.0548127
364.48	0.0532775
366.409	0.0516769
368.337	0.0502379
370.265	0.0491768
372.194	0.0478865
374.122	0.0464346
376.051	0.0448845
377.979	0.0431762
379.908	0.0415644
381.836	0.0402718
383.765	0.0389389
385.693	0.0375868
387.622	0.0365335
389.55	0.0356961
391.479	0.0348108
393.407	0.0338866
395.336	0.0331005
397.264	0.0323032
399.192	0.0313579
401.121	0.0305127
403.049	0.0300397
404.978	0.0297646
406.906	0.0294637
408.835	0.0292843
410.763	0.0290612
412.692	0.0288025
414.62	0.0286972
416.549	0.0286066
418.477	0.028409
420.406	0.0281611
422.334	0.0278702
424.262	0.0276904
426.191	0.0275645
428.12	0.0275902
430.048	0.0273631
431.976	0.0271522
433.905	0.0269077
435.833	0.026606
437.762	0.0263151
439.69	0.0261443
441.619	0.0259989
443.547	0.0261674
445.476	0.0260328
447.404	0.0256081
449.333	0.0255452
451.261	0.0257825
453.19	0.025762
455.118	0.025799
457.046	0.0257777
458.975	0.025613
460.903	0.0254405
462.832	0.0251111
464.76	0.0251157
466.689	0.0253033
468.617	0.0251605
470.546	0.0249362
472.474	0.0248665
474.403	0.0249384
476.331	0.0247679
478.26	0.0246969
480.188	0.0247943
482.116	0.0246955
484.045	0.0248734
485.974	0.0246825
487.902	0.0246311
489.83	0.0246221
491.759	0.0243837
493.687	0.0244425
495.616	0.024516
497.544	0.0243721
499.473	0.0239769
501.401	0.0238551
503.33	0.0238331
505.258	0.0239986
507.187	0.02408
509.115	0.0236395
511.043	0.0231681
512.972	0.0228341
514.9	0.0226886
516.829	0.0226856
518.757	0.022816
520.686	0.0229494
522.614	0.0228928
524.543	0.0230196
526.471	0.0230944
528.4	0.0232177
530.328	0.0232463
532.257	0.0232782
534.185	0.0230322
536.114	0.0226821
538.042	0.0228216
539.971	0.0230463
541.899	0.0228414
543.827	0.0226183
545.756	0.0224821
547.684	0.0225115
549.613	0.0228382
551.541	0.0229858
553.47	0.0228939
555.398	0.0229504
557.327	0.0228591
559.255	0.0225889
561.184	0.0225433
563.112	0.0227986
565.041	0.0228367
566.969	0.0229285
568.898	0.0230538
570.826	0.0233137
572.755	0.0236885
574.683	0.0238563
576.611	0.0239701
578.54	0.0239494
580.468	0.0242483
582.397	0.0245321
584.325	0.0243604
586.254	0.0242382
588.182	0.0243829
590.111	0.0242143
592.039	0.0237279
593.968	0.0234743
595.896	0.0232067
597.824	0.0231537
599.753	0.0227362
601.682	0.0221845
603.61	0.0221448
605.538	0.0223172
607.467	0.0220861
609.395	0.0216945
611.324	0.0214281
613.252	0.0215128
615.181	0.0215028
617.109	0.0210998
619.038	0.0212011
620.966	0.0218142
622.894	0.0223692
624.823	0.0228803
626.751	0.0236691
628.68	0.0248411
630.608	0.0259667
632.537	0.026541
634.465	0.0267052
636.394	0.0267541
638.322	0.0267056
640.251	0.0269791
642.179	0.0274072
644.108	0.0273341
646.036	0.0274802
647.965	0.0276708
649.893	0.0276581
651.822	0.0278042
653.75	0.0281058
655.678	0.0283574
657.607	0.0287082
659.535	0.0290164
661.464	0.0290922
663.392	0.0292918
665.321	0.029324
667.249	0.0295418
669.178	0.0297844
671.106	0.0298197
673.035	0.0296316
674.963	0.0299904
676.892	0.0306457
678.82	0.031599
680.749	0.0317794
682.677	0.0316775
684.606	0.0321671
686.534	0.0323448
688.462	0.0324844
690.391	0.0337791
692.319	0.034686
694.248	0.0344604
696.176	0.03504
698.105	0.0367224
700.033	0.038186
