Measurement: Infrared, Infrared Data Processed
Mineral: Calcite
Rruff sample: R050127
Ideal chemistry: CaCO_3_
Locality: Rodeo, Durango, Mexico
Source: Dave Bunk Minerals
Description: Group of colorless crystals
Measured chemistry: Ca_1.00_CO_3_
x	intensity
374.123	0.0430769
383.765	0.0331323
393.407	0.0233149
403.05	0.0234184
412.692	0.0191079
422.334	0.0199202
431.976	0.0163771
441.619	0.0154537
451.261	0.0152884
460.904	0.0149854
470.546	0.0124368
480.188	0.0134558
489.83	0.0123057
499.473	0.0112821
509.115	0.0094841
518.758	0.00839912
528.4	0.0081442
538.042	0.00774854
547.684	0.00734224
557.327	0.00608693
566.969	0.00685608
576.611	0.00728997
586.254	0.00725965
595.896	0.0073616
605.538	0.0070634
615.181	0.00737222
624.823	0.00726347
634.466	0.00683388
644.108	0.00682131
653.75	0.00749165
663.393	0.00749544
673.035	0.00802141
682.677	0.00941094
692.319	0.0107715
701.962	0.0173387
711.604	0.128789
721.246	0.0127886
730.889	0.00834383
740.531	0.00800374
750.173	0.00793398
759.816	0.00845379
769.458	0.00924711
779.101	0.0097644
788.743	0.00977147
798.385	0.0101059
808.028	0.0104925
817.67	0.011828
827.312	0.0134708
836.955	0.0173211
846.597	0.0413657
856.239	0.0500487
865.881	0.207133
875.524	0.306404
885.166	0.0701121
894.808	0.0166227
904.451	0.0167535
914.093	0.0167876
923.736	0.0176731
933.378	0.0180029
943.02	0.0184577
952.663	0.0182443
962.305	0.0184256
971.947	0.0185738
981.59	0.0186798
991.232	0.0186495
1000.87	0.0192628
1010.52	0.0204027
1020.16	0.021016
1029.8	0.0216495
1039.44	0.0221871
1049.09	0.0236648
1058.73	0.0247868
1068.37	0.0263429
1078.01	0.0286432
1087.65	0.0317979
1097.3	0.0310037
1106.94	0.0321373
1116.58	0.0342455
1126.22	0.0367894
1135.87	0.0398052
1145.51	0.0430655
1155.15	0.0477521
1164.79	0.0527308
1174.44	0.0559966
1184.08	0.0593875
1193.72	0.0627696
1203.36	0.06733
1213.01	0.0727084
1222.65	0.0801756
1232.29	0.0890461
1241.93	0.0986322
1251.58	0.109591
1261.22	0.123188
1270.86	0.138208
1280.5	0.156862
1290.14	0.178035
1299.79	0.205149
1309.43	0.237174
1319.07	0.272182
1328.71	0.314246
1338.36	0.366004
1348	0.42782
1357.64	0.502408
1367.28	0.592116
1376.92	0.687959
1386.57	0.783601
1396.21	0.823802
1405.85	0.795384
1415.49	0.691527
1425.14	0.600738
1434.78	0.525925
1444.42	0.460741
1454.06	0.400843
1463.71	0.34875
1473.35	0.303976
1482.99	0.263636
1492.63	0.225774
1502.28	0.18918
1511.92	0.155014
1521.56	0.123874
1531.2	0.0935987
1540.85	0.0641724
1550.49	0.035893
1560.13	0.0249825
1569.77	0.0195362
1579.41	0.0180641
1589.06	0.0154133
1598.7	0.0110121
1608.34	0.00798527
1617.98	0.00624518
1627.63	0.00491077
1637.27	0.00421495
1646.91	0.00368172
1656.55	0.00282361
1666.19	0.00205023
1675.84	0.00198531
1685.48	0.0017258
1695.12	0.00155334
1704.77	0.000740333
1714.41	0.00095494
1724.05	0.000515614
1733.69	0.000934335
1743.33	-2.87658e-05
1752.98	-0.000239904
1762.62	-0.000128358
1772.26	0.000390778
1781.9	0.00192189
1791.55	0.0189466
1801.19	0.0139692
1810.83	0.000706519
1820.47	-0.000392704
1830.12	-0.00110287
1839.76	-0.00141469
1849.4	-0.00196101
1859.04	-0.0018774
1868.68	-0.00137704
1878.33	-0.0012787
1887.97	-0.00136609
1897.61	-0.001536
1907.25	-0.00177148
1916.9	-0.00132126
1926.54	-0.00115957
1936.18	-0.00130861
1945.82	-0.00100801
1955.46	-0.00137171
1965.11	-0.000978072
1974.75	-0.00093078
1984.39	-3.99756e-05
1994.04	-0.000635893
2003.68	-0.00136053
2013.32	0.000424775
2022.96	-0.00040523
2032.6	-0.000870385
2042.25	-0.00101336
2051.89	-8.40284e-05
2061.53	-0.00125406
2071.17	-0.0014215
2080.82	-0.000666667
2090.46	-0.00240641
2100.1	-0.000973111
2109.74	-0.000823731
2119.39	-0.00146868
2129.03	-0.00235251
2138.67	-0.00152216
2148.31	-0.00028127
2157.95	-0.00103956
2167.6	0.000680105
2177.24	-6.49266e-07
2186.88	0.001759
2196.52	0.000481559
2206.17	-0.000134785
2215.81	-5.85863e-05
2225.45	0.00118083
2235.09	0.0006251
2244.74	6.85038e-05
2254.38	4.99733e-05
2264.02	0.000702176
2273.66	0.000307191
2283.3	0.00102202
2292.95	0.000196794
2302.59	-6.71365e-05
2312.23	0.000835129
2321.87	0.00206361
2331.52	0.00155219
2341.16	0.00175588
2350.8	0.000597213
2360.44	0.00198418
2370.09	0.0012582
2379.73	0.000203453
2389.37	-0.00022735
2399.01	-0.000192107
2408.66	0.00030132
2418.3	0.000104412
2427.94	8.98636e-05
2437.58	-3.38408e-05
2447.22	0.00130451
2456.87	0.00144651
2466.51	0.00200824
2476.15	0.00207692
2485.79	0.00469632
2495.44	0.00895259
2505.08	0.0148642
2514.72	0.0175514
2524.36	0.0133764
2534.01	0.00791036
2543.65	0.00384249
2553.29	0.00417673
2562.93	0.00328693
2572.57	0.00347047
2582.22	0.0021844
2591.86	0.00219703
2601.5	0.00205805
2611.14	0.000893734
2620.79	0.000380932
2630.43	-0.000340645
2640.07	-0.000957202
2649.71	-0.00118726
2659.36	-0.00138698
2669	-0.00165158
2678.64	-0.00186873
2688.28	-0.002095
2697.93	-0.00242701
2707.57	-0.00255251
2717.21	-0.00234669
2726.85	-0.0018836
2736.49	-0.00290879
2746.14	-0.0028408
2755.78	-0.00311728
2765.42	-0.00285718
2775.06	-0.00270339
2784.71	-0.00330285
2794.35	-0.00282546
2803.99	-0.0026347
2813.63	-0.0023613
2823.28	-0.00152433
2832.92	-0.000303713
2842.56	0.00201165
2852.2	0.00561971
2861.84	0.00589935
2871.49	0.00614218
2881.13	0.00449446
2890.77	0.00325048
2900.41	0.0038655
2910.06	0.00551578
2919.7	0.00783798
2929.34	0.00713053
2938.98	0.00493552
2948.62	0.00341026
2958.27	0.00444895
2967.91	0.00336108
2977.55	0.00322343
2987.2	0.00284745
2996.84	0.000596218
3006.48	-5.80753e-05
3016.12	0.00216281
3025.76	-0.000213528
3035.41	0.000515549
3045.05	0.000854754
3054.69	0.00158718
3064.33	0.00118461
3073.98	0.00170978
3083.62	0.00276458
3093.26	0.00289001
3102.9	0.00226201
3112.55	0.00315041
3122.19	0.00435751
3131.83	0.00337245
3141.47	0.0030789
3151.11	0.0046363
3160.76	0.0043649
3170.4	0.00411226
3180.04	0.00446743
3189.68	0.00445309
3199.33	0.00444539
3208.97	0.00516766
3218.61	0.00514209
3228.25	0.00531489
3237.9	0.00448036
3247.54	0.00446995
3257.18	0.00494408
3266.82	0.00395834
3276.47	0.00431473
3286.11	0.00435025
3295.75	0.00422359
3305.39	0.00422727
3315.03	0.00481014
3324.68	0.004046
3334.32	0.00467762
3343.96	0.00457533
3353.6	0.00520831
3363.25	0.0047703
3372.89	0.0050808
3382.53	0.00424207
3392.17	0.00448999
3401.82	0.00485758
3411.46	0.00341738
3421.1	0.00479596
3430.74	0.00298387
3440.39	0.0041955
3450.03	0.00410891
3459.67	0.00419787
3469.31	0.00283244
3478.95	0.00369078
3488.6	0.00452997
3498.24	0.00357692
3507.88	0.00415392
3517.52	0.00251115
3527.17	0.00419199
3536.81	0.00346378
3546.45	0.00296064
3556.09	0.00408613
3565.74	0.00338507
3575.38	0.00158945
3585.02	0.00390905
3594.66	0.00279374
3604.3	0.00269488
3613.95	0.00293205
3623.59	0.00379283
3633.23	0.00180137
3642.87	0.00254333
3652.52	0.00308387
3662.16	0.00276779
3671.8	0.0026827
3681.44	0.000498492
3691.09	0.0038788
3700.73	0.00263702
3710.37	0.00295301
3720.01	0.0029245
3729.66	0.00285879
3739.3	0.00262728
3748.94	0.00424607
3758.58	0.00226241
3768.22	0.00346481
3777.87	0.0032558
3787.51	0.00281639
3797.15	0.00217804
3806.79	0.00368546
3816.44	0.00400711
3826.08	0.00309184
3835.72	0.00305595
3845.36	0.00278935
3855.01	0.00378092
3864.65	0.00327619
3874.29	0.00372341
3883.93	0.00396239
3893.57	0.00328947
3903.22	0.00248637
3912.86	0.00331602
3922.5	0.00151168
3932.14	0.00365993
3941.79	0.00449814
3951.43	0.00390724
3961.07	0.00299002
3970.71	0.00382478
3980.36	0.00254224
3990	0.00222193
3999.64	0.00322651
