Measurement: Infrared, Infrared Data Processed
Mineral: Calcite
Rruff sample: R050009
Ideal chemistry: CaCO_3_
Locality: Amparo mine, Rodeo, Durango, Mexico
Source: Eugene Schlepp
Description: Colorless cleavage rhomb
Measured chemistry: Ca_1.00_CO_3_; trace amounts of Mn
x	intensity
399.193	0
408.835	0.0201835
418.477	0.0188788
428.12	0.0173119
437.762	0.0157807
447.404	0.0135428
457.047	0.0125948
466.689	0.0124384
476.331	0.0116422
485.974	0.0106868
495.616	0.010304
505.258	0.00947441
514.901	0.00817605
524.543	0.00847426
534.185	0.00770032
543.828	0.00736402
553.47	0.00672762
563.112	0.00669579
572.755	0.00673299
582.397	0.00750881
592.039	0.0071187
601.682	0.00710623
611.324	0.00827395
620.966	0.0072106
630.609	0.00678363
640.251	0.00696122
649.893	0.0072942
659.536	0.00666717
669.178	0.00718478
678.82	0.0078044
688.463	0.00870085
698.105	0.0119951
707.747	0.0392203
717.39	0.0245845
727.032	0.0075263
736.674	0.00762617
746.317	0.00764915
755.959	0.00755367
765.601	0.00876567
775.244	0.00966896
784.886	0.00992343
794.528	0.010159
804.171	0.0105114
813.813	0.0115516
823.455	0.0127244
833.098	0.0144075
842.74	0.0201418
852.382	0.0286582
862.025	0.0840871
871.667	0.315204
881.309	0.139658
890.952	0.0136335
900.594	0.0115492
910.236	0.0116239
919.879	0.0123409
929.521	0.013266
939.163	0.0141026
948.806	0.0145933
958.448	0.0149565
968.09	0.0157748
977.733	0.0166155
987.375	0.0177168
997.017	0.0187492
1006.66	0.0195008
1016.3	0.0207411
1025.94	0.0212627
1035.59	0.0220628
1045.23	0.0230976
1054.87	0.0245336
1064.51	0.0266691
1074.16	0.0285064
1083.8	0.0318074
1093.44	0.0332199
1103.08	0.0333816
1112.72	0.0346878
1122.37	0.0365621
1132.01	0.0389629
1141.65	0.0419512
1151.3	0.0449928
1160.94	0.0483244
1170.58	0.0503474
1180.22	0.0533826
1189.86	0.0561335
1199.51	0.0595025
1209.15	0.0631961
1218.79	0.0675839
1228.43	0.0732326
1238.08	0.0799976
1247.72	0.0873141
1257.36	0.0963604
1267	0.106903
1276.64	0.119895
1286.29	0.134021
1295.93	0.152195
1305.57	0.174697
1315.21	0.199841
1324.86	0.229074
1334.5	0.265357
1344.14	0.31107
1353.78	0.366924
1363.43	0.437534
1373.07	0.51896
1382.71	0.608784
1392.35	0.691716
1401.99	0.69408
1411.64	0.647973
1421.28	0.56558
1430.92	0.500168
1440.57	0.442526
1450.21	0.389405
1459.85	0.340224
1469.49	0.297437
1479.13	0.258778
1488.78	0.222706
1498.42	0.188178
1508.06	0.155739
1517.7	0.124881
1527.35	0.097733
1536.99	0.0706469
1546.63	0.0434718
1556.27	0.0267196
1565.91	0.0206322
1575.56	0.0171759
1585.2	0.0164796
1594.84	0.0132239
1604.48	0.0107478
1614.13	0.0094557
1623.77	0.00852673
1633.41	0.0078116
1643.05	0.00737061
1652.7	0.00708238
1662.34	0.00638004
1671.98	0.0056662
1681.62	0.00548487
1691.27	0.00481923
1700.91	0.0042264
1710.55	0.00376569
1720.19	0.00421371
1729.84	0.00424404
1739.48	0.00333411
1749.12	0.00292802
1758.76	0.00300594
1768.4	0.00344083
1778.05	0.00413567
1787.69	0.0106032
1797.33	0.0216202
1806.97	0.00605832
1816.62	0.00270607
1826.26	0.003121
1835.9	0.00219135
1845.54	0.00256075
1855.18	0.0025617
1864.83	0.00184056
1874.47	0.00211156
1884.11	0.00151326
1893.75	0.00192425
1903.4	0.00223807
1913.04	0.00240561
1922.68	0.00210506
1932.32	0.00240705
1941.97	0.00161158
1951.61	0.00147674
1961.25	0.00284678
1970.89	0.000969102
1980.54	0.00276833
1990.18	0.00251021
1999.82	0.00157298
2009.46	0.00257521
2019.11	0.00193136
2028.75	0.00300775
2038.39	0.00427248
2048.03	0.00529626
2057.67	0.00491452
2067.32	0.0024612
2076.96	0.0052682
2086.6	0.00437348
2096.24	0.00315529
2105.89	0.00447697
2115.53	0.00355513
2125.17	0.00495086
2134.81	0.00359309
2144.45	0.0032669
2154.1	0.00142415
2163.74	0.00601299
2173.38	0.00518636
2183.02	0.00285928
2192.67	0.00581099
2202.31	0.00540293
2211.95	0.00420066
2221.59	0.00629949
2231.24	0.00608684
2240.88	0.00547283
2250.52	0.00493315
2260.16	0.00562175
2269.8	0.0063887
2279.45	0.00815879
2289.09	0.00787618
2298.73	0.00777164
2308.38	0.00790567
2318.02	0.00846634
2327.66	0.00682356
2337.3	0.00708016
2346.94	0.00708699
2356.59	0.00692487
2366.23	0.00627677
2375.87	0.0067543
2385.51	0.00613958
2395.16	0.00678754
2404.8	0.00695432
2414.44	0.00755549
2424.08	0.00629385
2433.72	0.00761467
2443.37	0.00764322
2453.01	0.00763798
2462.65	0.00899713
2472.29	0.00865561
2481.94	0.00966361
2491.58	0.0116895
2501.22	0.0171907
2510.86	0.0208393
2520.51	0.019176
2530.15	0.0139081
2539.79	0.0108867
2549.43	0.00955269
2559.07	0.00925692
2568.72	0.010324
2578.36	0.00924237
2588	0.00896065
2597.64	0.00923089
2607.29	0.00930584
2616.93	0.00826472
2626.57	0.00792345
2636.21	0.00684477
2645.86	0.0071717
2655.5	0.00737927
2665.14	0.00643276
2674.78	0.00609266
2684.43	0.00592889
2694.07	0.00621076
2703.71	0.00574452
2713.35	0.00500581
2722.99	0.00504691
2732.64	0.00557969
2742.28	0.00581073
2751.92	0.00536142
2761.56	0.00506534
2771.21	0.00499611
2780.85	0.00542768
2790.49	0.00461058
2800.13	0.0055144
2809.78	0.00507322
2819.42	0.00558416
2829.06	0.00637745
2838.7	0.00808072
2848.34	0.00855827
2857.99	0.00994182
2867.63	0.0109071
2877.27	0.0109625
2886.91	0.00937805
2896.56	0.00915912
2906.2	0.00962618
2915.84	0.00969899
2925.48	0.00829774
2935.13	0.00879473
2944.77	0.00979516
2954.41	0.00913764
2964.05	0.00980021
2973.7	0.0101339
2983.34	0.011988
2992.98	0.0107203
3002.62	0.00996614
3012.26	0.00952417
3021.91	0.0100217
3031.55	0.0101211
3041.19	0.0100413
3050.83	0.0099474
3060.48	0.0122693
3070.12	0.0110641
3079.76	0.0121137
3089.4	0.013025
3099.05	0.0144359
3108.69	0.0133056
3118.33	0.0142948
3127.97	0.0134821
3137.61	0.0144922
3147.26	0.0150803
3156.9	0.0157392
3166.54	0.015131
3176.18	0.0151333
3185.83	0.0158862
3195.47	0.017357
3205.11	0.0156493
3214.75	0.0173516
3224.4	0.0165017
3234.04	0.0178373
3243.68	0.0164679
3253.32	0.0159493
3262.97	0.0169343
3272.61	0.0175245
3282.25	0.017754
3291.89	0.0187817
3301.53	0.0187714
3311.18	0.0172774
3320.82	0.0173428
3330.46	0.0172515
3340.1	0.0176735
3349.75	0.0185087
3359.39	0.0190124
3369.03	0.0188964
3378.67	0.0186155
3388.32	0.0186577
3397.96	0.0184487
3407.6	0.0174338
3417.24	0.0177876
3426.89	0.0193473
3436.53	0.0188103
3446.17	0.0181688
3455.81	0.0181534
3465.45	0.0174262
3475.1	0.0182917
3484.74	0.0185417
3494.38	0.0177265
3504.02	0.0170299
3513.67	0.0176081
3523.31	0.018444
3532.95	0.0175624
3542.59	0.0176289
3552.24	0.017202
3561.88	0.0173319
3571.52	0.0186048
3581.16	0.0162771
3590.8	0.0174264
3600.45	0.0173524
3610.09	0.016603
3619.73	0.0155034
3629.37	0.0177567
3639.02	0.0165103
3648.66	0.0184266
3658.3	0.0178475
3667.94	0.0157018
3677.59	0.0150966
3687.23	0.0182495
3696.87	0.0168816
3706.51	0.0161356
3716.16	0.0167444
3725.8	0.0168153
3735.44	0.0169905
3745.08	0.0177568
3754.72	0.0169295
3764.37	0.0179961
3774.01	0.016419
3783.65	0.0190456
3793.29	0.0199325
3802.94	0.0179649
3812.58	0.0209512
3822.22	0.0196533
3831.86	0.0188624
3841.51	0.0193684
3851.15	0.0180558
3860.79	0.0165301
3870.43	0.0179351
3880.07	0.0176616
3889.72	0.0185833
3899.36	0.0165582
3909	0.0176653
3918.64	0.0181958
3928.29	0.018214
3937.93	0.0186498
3947.57	0.0184446
3957.21	0.0170578
3966.86	0.0190223
3976.5	0.0205466
3986.14	0.0204917
3995.78	0.0202717
