Measurement: Infrared, Infrared Data Processed
Mineral: Calcite
Rruff sample: R050127
Ideal chemistry: CaCO_3_
Locality: Rodeo, Durango, Mexico
Source: Dave Bunk Minerals
Description: Group of colorless crystals
Measured chemistry: Ca_1.00_CO_3_
x	intensity
50.1401	0.00813083
52.0686	0.00317557
53.9971	0.00109943
55.9255	0.00419144
57.854	0.0096185
59.7825	0.0114355
61.7109	0.0096579
63.6394	0.0115769
65.5679	0.0142686
67.4963	0.0144838
69.4248	0.0134764
71.3533	0.0143071
73.2817	0.0153038
75.2102	0.0152711
77.1387	0.0154515
79.0671	0.0152785
80.9956	0.0158915
82.9241	0.0171073
84.8525	0.0171888
86.781	0.0181054
88.7095	0.0178601
90.6379	0.0172246
92.5664	0.0185036
94.4948	0.0200022
96.4233	0.0203449
98.3518	0.0203936
100.28	0.0202489
102.209	0.0200523
104.137	0.0204756
106.066	0.0205524
107.994	0.0201847
109.923	0.0200695
111.851	0.0191963
113.779	0.0176642
115.708	0.016108
117.636	0.0148384
119.565	0.0139735
121.493	0.0130226
123.422	0.0125229
125.35	0.0125285
127.279	0.0119898
129.207	0.0115962
131.136	0.0112294
133.064	0.0101339
134.993	0.00963404
136.921	0.00985252
138.85	0.0100741
140.778	0.00963411
142.707	0.00974147
144.635	0.00982383
146.563	0.00961263
148.492	0.0101209
150.42	0.0113355
152.349	0.0118318
154.277	0.0120538
156.206	0.0128738
158.134	0.0132465
160.063	0.0131485
161.991	0.0135065
163.92	0.0142325
165.848	0.0150274
167.777	0.0156574
169.705	0.0164353
171.633	0.0171212
173.562	0.0179134
175.49	0.0183946
177.419	0.0188736
179.347	0.0193174
181.276	0.019663
183.204	0.0202725
185.133	0.021127
187.061	0.0218537
188.99	0.0223028
190.918	0.0225929
192.847	0.0231493
194.775	0.0240475
196.704	0.0248137
198.632	0.0255253
200.56	0.0263806
202.489	0.0273269
204.417	0.027869
206.346	0.0284308
208.274	0.0293657
210.203	0.0303723
212.131	0.0313131
214.06	0.0327214
215.988	0.0341436
217.917	0.0353072
219.845	0.0360244
221.774	0.0367588
223.702	0.0373758
225.631	0.0374902
227.559	0.0370972
229.488	0.0355179
231.416	0.0334896
233.344	0.0308403
235.273	0.027874
237.201	0.0252241
239.13	0.0236454
241.058	0.0228839
242.987	0.0227903
244.915	0.0232645
246.844	0.0241633
248.772	0.0254453
250.701	0.0267044
252.629	0.0280138
254.558	0.0290773
256.486	0.0298474
258.414	0.0311997
260.343	0.0329495
262.271	0.0343492
264.2	0.035558
266.128	0.0370253
268.057	0.0381041
269.985	0.0392843
271.914	0.0407665
273.842	0.0418104
275.771	0.0428193
277.699	0.0442867
279.628	0.0452097
281.556	0.0458092
283.485	0.0470028
285.413	0.0485117
287.341	0.0496627
289.27	0.0506457
291.198	0.051534
293.127	0.0526554
295.055	0.0536879
296.984	0.0540836
298.912	0.0540952
300.841	0.0545769
302.769	0.0553514
304.698	0.0552483
306.626	0.0549173
308.555	0.0545467
310.483	0.0540631
312.411	0.0537697
314.34	0.0533783
316.269	0.0527376
318.197	0.0516638
320.125	0.0507016
322.054	0.0500034
323.982	0.0490704
325.911	0.0479935
327.839	0.0471806
329.768	0.0464117
331.696	0.0454404
333.625	0.0443365
335.553	0.0433317
337.482	0.0425263
339.41	0.0416607
341.339	0.0401962
343.267	0.0391432
345.195	0.0386763
347.124	0.0380445
349.052	0.0370003
350.981	0.0361707
352.909	0.0355234
354.838	0.0347698
356.766	0.0337911
358.695	0.0329939
360.623	0.0320263
362.552	0.0312356
364.48	0.0305002
366.409	0.0297147
368.337	0.0289263
370.265	0.0283047
372.194	0.0276244
374.122	0.0272368
376.051	0.0266915
377.979	0.0260559
379.908	0.0251747
381.836	0.0244182
383.765	0.0237628
385.693	0.0230908
387.622	0.0225747
389.55	0.0222716
391.479	0.0219397
393.407	0.0215952
395.336	0.0211087
397.264	0.0208645
399.192	0.0207031
401.121	0.0204072
403.049	0.0203137
404.978	0.0203424
406.906	0.0201762
408.835	0.0200222
410.763	0.0200722
412.692	0.0202412
414.62	0.0203347
416.549	0.0203393
418.477	0.0201813
420.406	0.019969
422.334	0.0200349
424.262	0.0199836
426.191	0.0196139
428.12	0.0192654
430.048	0.0190161
431.976	0.0189152
433.905	0.0186577
435.833	0.0182588
437.762	0.0179014
439.69	0.0177884
441.619	0.0176043
443.547	0.0171978
445.476	0.0169977
447.404	0.017228
449.333	0.0173166
451.261	0.017415
453.19	0.0175919
455.118	0.0179203
457.046	0.0183921
458.975	0.0186901
460.903	0.0187916
462.832	0.0192378
464.76	0.0194702
466.689	0.0194663
468.617	0.019609
470.546	0.0194463
472.474	0.0195013
474.403	0.0196759
476.331	0.0195366
478.26	0.018922
480.188	0.0186168
482.116	0.0186175
484.045	0.0182905
485.974	0.0177627
487.902	0.017342
489.83	0.0172347
491.759	0.0172433
493.687	0.0177922
495.616	0.0180618
497.544	0.0181045
499.473	0.0183899
501.401	0.0188193
503.33	0.0193351
505.258	0.0197008
507.187	0.0195007
509.115	0.0190362
511.043	0.0186056
512.972	0.0180673
514.9	0.0179121
516.829	0.0179261
518.757	0.0179578
520.686	0.0178759
522.614	0.0177334
524.543	0.0177085
526.471	0.0176891
528.4	0.0178927
530.328	0.0177464
532.257	0.0173816
534.185	0.0173797
536.114	0.0175135
538.042	0.0177038
539.971	0.0178705
541.899	0.0179305
543.827	0.0183551
545.756	0.01851
547.684	0.018437
549.613	0.0183787
551.541	0.0187098
553.47	0.0188228
555.398	0.0185733
557.327	0.0185668
559.255	0.0189833
561.184	0.0191735
563.112	0.0191763
565.041	0.0191461
566.969	0.0192971
568.898	0.0193175
570.826	0.0194403
572.755	0.0196882
574.683	0.0196816
576.611	0.0196307
578.54	0.0197217
580.468	0.0197232
582.397	0.0191597
584.325	0.0185745
586.254	0.0184452
588.182	0.0183161
590.111	0.0179647
592.039	0.017745
593.968	0.0176523
595.896	0.0172283
597.824	0.0170768
599.753	0.0173601
601.682	0.0176899
603.61	0.0180084
605.538	0.0182495
607.467	0.0176702
609.395	0.0175789
611.324	0.0184638
613.252	0.0188472
615.181	0.0184454
617.109	0.0182217
619.038	0.0187448
620.966	0.0193537
622.894	0.019857
624.823	0.0202371
626.751	0.020907
628.68	0.0224153
630.608	0.0235543
632.537	0.0240541
634.465	0.0243245
636.394	0.0242716
638.322	0.0243731
640.251	0.0242702
642.179	0.0238328
644.108	0.0237409
646.036	0.0239803
647.965	0.0239883
649.893	0.0239435
651.822	0.02382
653.75	0.023842
655.678	0.024402
657.607	0.0246845
659.535	0.0246962
661.464	0.0245396
663.392	0.0242056
665.321	0.0243178
667.249	0.0249948
669.178	0.0248496
671.106	0.0244678
673.035	0.0242449
674.963	0.0240779
676.892	0.0242959
678.82	0.0244667
680.749	0.0244175
682.677	0.0242902
684.606	0.025026
686.534	0.0264866
688.462	0.0270313
690.391	0.0262043
692.319	0.0262645
694.248	0.0279137
696.176	0.0299715
698.105	0.0298168
700.033	0.0293845
