Measurement: Infrared, Infrared Data Processed
Mineral: Cancrinite
Rruff sample: R050352
Ideal chemistry: (Na,Ca,[box])_8_(Al_6_Si_6_)O_24_(CO_3_,S^6+^O_4_)_2_2H_2_O
Locality: York River, quarry #2, Dungannon Township, Ontario, Canada
Source: California Institute of Technology
Description: Pink fragment
Measured chemistry: (Na_6.07_Ca_1.62_[box]_0.31_)_Σ=8_(Al_0.99_Si_1.01_O_4_)_6_((CO_3_)_0.84_[box]_0.16_)_Σ=2_·2H_2_O
x	intensity
399.193	0.134926
408.835	0.140112
418.477	0.173542
428.12	0.182556
437.762	0.146732
447.404	0.100692
457.047	0.1456
466.689	0.153875
476.331	0.0970543
485.974	0.0686832
495.616	0.074541
505.258	0.075732
514.901	0.0550501
524.543	0.0356909
534.185	0.0315436
543.828	0.0327033
553.47	0.039064
563.112	0.0559719
572.755	0.100518
582.397	0.108081
592.039	0.0541289
601.682	0.0556277
611.324	0.0978685
620.966	0.138269
630.609	0.0806806
640.251	0.0435336
649.893	0.0419924
659.536	0.0625833
669.178	0.123735
678.82	0.118659
688.463	0.0986428
698.105	0.0611149
707.747	0.0381476
717.39	0.0303695
727.032	0.0226658
736.674	0.0259224
746.317	0.0197772
755.959	0.0187614
765.601	0.0192346
775.244	0.0213518
784.886	0.0165497
794.528	0.0164694
804.171	0.0177981
813.813	0.0199491
823.455	0.0225301
833.098	0.027661
842.74	0.0362859
852.382	0.0691437
862.025	0.0425512
871.667	0.0578222
881.309	0.0746241
890.952	0.0970053
900.594	0.136491
910.236	0.185291
919.879	0.245253
929.521	0.294212
939.163	0.301169
948.806	0.281512
958.448	0.299317
968.09	0.298315
977.733	0.284517
987.375	0.264088
997.017	0.226871
1006.66	0.172511
1016.3	0.140036
1025.94	0.15288
1035.59	0.153984
1045.23	0.12324
1054.87	0.0939114
1064.51	0.0579269
1074.16	0.0479503
1083.8	0.0459002
1093.44	0.0416168
1103.08	0.0474324
1112.72	0.0694997
1122.37	0.0954099
1132.01	0.0943533
1141.65	0.0699482
1151.3	0.0461487
1160.94	0.0277757
1170.58	0.0155357
1180.22	0.00871426
1189.86	0.00539531
1199.51	0.00343189
1209.15	0.00252818
1218.79	0.00125471
1228.43	0.000445273
1238.08	0.000436697
1247.72	0.00022321
1257.36	-0.000137007
1267	-0.000234917
1276.64	0.00018353
1286.29	0.000144628
1295.93	0.000428655
1305.57	0.000812031
1315.21	0.000900297
1324.86	0.00178524
1334.5	0.00136381
1344.14	0.00273982
1353.78	0.00316455
1363.43	0.00559194
1373.07	0.015773
1382.71	0.0243117
1392.35	0.0324733
1401.99	0.0334556
1411.64	0.0252812
1421.28	0.0145754
1430.92	0.0138298
1440.57	0.0164725
1450.21	0.0229926
1459.85	0.0269247
1469.49	0.0324913
1479.13	0.0665108
1488.78	0.0832897
1498.42	0.0758749
1508.06	0.0762141
1517.7	0.0761277
1527.35	0.0320531
1536.99	0.00916263
1546.63	0.00499204
1556.27	0.0036216
1565.91	0.00297495
1575.56	0.00171634
1585.2	0.000791415
1594.84	0.000311001
1604.48	0.000833031
1614.13	0.00266512
1623.77	0.0113384
1633.41	0.00506912
1643.05	0.000933021
1652.7	-1.6428e-05
1662.34	-0.00205475
1671.98	-0.00303795
1681.62	-0.00229802
1691.27	-0.00178344
1700.91	-0.00237246
1710.55	-0.00416278
1720.19	-0.00399493
1729.84	-0.00402713
1739.48	-0.00586737
1749.12	-0.00424523
1758.76	-0.0016513
1768.4	-0.00035377
1778.05	-0.000683393
1787.69	-0.00117099
1797.33	-0.00091259
1806.97	-0.00217185
1816.62	-0.00169276
1826.26	-0.00215895
1835.9	-0.00179619
1845.54	-0.00271213
1855.18	-0.00154823
1864.83	-0.00348347
1874.47	-0.00347823
1884.11	-0.00362627
1893.75	-0.00260042
1903.4	-0.00483332
1913.04	-0.00451296
1922.68	-0.005236
1932.32	-0.00704925
1941.97	-0.00832526
1951.61	-0.00808712
1961.25	-0.0096942
1970.89	-0.0142062
1980.54	-0.00823494
1990.18	-0.0089231
1999.82	-0.00930139
2009.46	-0.00957867
2019.11	-0.00657163
2028.75	-0.00865049
2038.39	-0.00425827
2048.03	-0.0102966
2057.67	-0.00371084
2067.32	-0.00541427
2076.96	-0.00455422
2086.6	-0.00369367
2096.24	-0.00275556
2105.89	-0.00270006
2115.53	-0.00300353
2125.17	-0.00474456
2134.81	-0.00788768
2144.45	-0.0054056
2154.1	-0.00785808
2163.74	-0.00685606
2173.38	-0.0066358
2183.02	-0.00631941
2192.67	-0.00774054
2202.31	-0.00465176
2211.95	-0.0048088
2221.59	-0.00629848
2231.24	-0.00583601
2240.88	-0.00315109
2250.52	-0.00417951
2260.16	-0.00403924
2269.8	-0.00370521
2279.45	-0.00205855
2289.09	-0.000529346
2298.73	-0.000820202
2308.38	-0.00210375
2318.02	0.000736909
2327.66	0.00172591
2337.3	0.00164796
2346.94	0.00073879
2356.59	0.000949229
2366.23	0.00171367
2375.87	0.000203517
2385.51	-0.000279454
2395.16	-0.000170136
2404.8	-0.0015153
2414.44	-0.000899856
2424.08	0.00182814
2433.72	-0.00139639
2443.37	0.00067622
2453.01	0.000323536
2462.65	-0.00107133
2472.29	0.000217594
2481.94	-0.00253033
2491.58	-0.00113802
2501.22	-0.000866698
2510.86	0.000283316
2520.51	-0.00213905
2530.15	-0.00226864
2539.79	5.12507e-05
2549.43	-0.00220272
2559.07	-0.00200845
2568.72	-0.000974617
2578.36	-0.00106841
2588	-0.0013293
2597.64	-0.00133838
2607.29	-0.000996415
2616.93	-0.000180861
2626.57	-0.000795515
2636.21	-0.00168389
2645.86	0.000415796
2655.5	-0.00179891
2665.14	-0.000752571
2674.78	-0.00203149
2684.43	-0.00211943
2694.07	-0.000419026
2703.71	-0.00223203
2713.35	-0.00163988
2722.99	-0.000881609
2732.64	-0.00186825
2742.28	-0.00218679
2751.92	-0.00221513
2761.56	-0.00295169
2771.21	-0.00206897
2780.85	-0.00320914
2790.49	-0.00313017
2800.13	-0.00442939
2809.78	-0.00455623
2819.42	-0.00385464
2829.06	-0.00619032
2838.7	-0.00724669
2848.34	-0.0171899
2857.99	-0.015811
2867.63	-0.0101901
2877.27	-0.00952312
2886.91	-0.00842724
2896.56	-0.0121483
2906.2	-0.0175832
2915.84	-0.0246897
2925.48	-0.0323623
2935.13	-0.0223978
2944.77	-0.0165715
2954.41	-0.0154755
2964.05	-0.0120269
2973.7	-0.00909302
2983.34	-0.00880857
2992.98	-0.00729306
3002.62	-0.00473067
3012.26	-0.00342085
3021.91	-0.00699151
3031.55	-0.00492186
3041.19	-0.00496652
3050.83	-0.00457193
3060.48	-0.00193625
3070.12	-0.00112522
3079.76	-0.00243238
3089.4	-0.00261338
3099.05	-0.000730603
3108.69	-0.00407392
3118.33	-0.00261042
3127.97	-0.00436896
3137.61	-0.000873831
3147.26	-0.00191504
3156.9	-0.00300231
3166.54	-0.00171123
3176.18	-0.0013113
3185.83	-0.00234649
3195.47	-0.00330034
3205.11	-0.0046196
3214.75	-0.00376501
3224.4	-0.00286064
3234.04	-0.00578621
3243.68	-0.00491148
3253.32	-0.00303302
3262.97	-0.0029775
3272.61	-0.00394934
3282.25	-0.00452373
3291.89	-0.00384578
3301.53	-0.00392185
3311.18	-0.00227989
3320.82	-0.00224017
3330.46	-0.00258753
3340.1	-0.00570118
3349.75	-0.0028233
3359.39	-0.00422699
3369.03	-0.00428955
3378.67	-0.00185226
3388.32	-0.00337754
3397.96	-0.00284978
3407.6	-0.00287815
3417.24	-0.00188177
3426.89	-0.001322
3436.53	-0.00253001
3446.17	-0.00429725
3455.81	-0.00345624
3465.45	-0.002224
3475.1	-0.00129504
3484.74	0.000869228
3494.38	0.000937784
3504.02	0.00264258
3513.67	0.00222971
3523.31	0.00584941
3532.95	0.00758566
3542.59	0.0071676
3552.24	0.00485416
3561.88	0.0056366
3571.52	0.00337609
3581.16	0.00308188
3590.8	0.00666437
3600.45	0.00595759
3610.09	0.00709411
3619.73	0.00525972
3629.37	-0.000183019
3639.02	0.00479011
3648.66	1.34194e-05
3658.3	-0.000517016
3667.94	-0.00147996
3677.59	0.000965126
3687.23	-0.00667357
3696.87	-0.00147805
3706.51	-0.00261757
3716.16	-0.00244747
3725.8	-0.00337076
3735.44	-0.00428409
3745.08	-0.0017336
3754.72	-0.00274514
3764.37	0.000329067
3774.01	-0.00312597
3783.65	-0.00192214
3793.29	-0.000581452
3802.94	-0.00499176
3812.58	-0.00494938
3822.22	0.0038936
3831.86	-0.00391683
3841.51	-0.000511097
3851.15	-0.0025788
3860.79	-0.00251999
3870.43	-0.00299847
3880.07	-0.00592453
3889.72	-0.000582318
3899.36	9.71623e-05
3909	0.00198905
3918.64	-0.000200073
3928.29	-0.0027738
3937.93	-0.00575645
3947.57	-0.00376249
3957.21	-0.000373647
3966.86	-0.00354727
3976.5	-0.00374365
3986.14	-0.00105524
3995.78	-0.00349479
