Measurement: Infrared, Infrared Data Processed
Mineral: Carletonite
Rruff sample: R050255
Ideal chemistry: KNa_4_Ca_4_Si_8_O_18_(CO_3_)_4_(F,OH)H_2_O
Locality: Mont Saint-Hilaire, Rouville County, Quebec, Canada
Source: Marcus Origlieri
Description: Group of blue prismatic single crystals
Measured chemistry: (K_0.86_Na_0.14_)_Σ=1_Na_4.00_Ca_4.00_Si_8.00_O_18_(CO_3_)_4_(F_0.51_(OH)_0.49_)_Σ=1_·H_2_O
x	intensity
399.193	0.0338043
408.835	0.0381885
418.477	0.0522852
428.12	0.0831436
437.762	0.111433
447.404	0.0762314
457.047	0.0910058
466.689	0.0584096
476.331	0.0403241
485.974	0.046358
495.616	0.056103
505.258	0.0329795
514.901	0.0170034
524.543	0.0354264
534.185	0.0123903
543.828	0.00801529
553.47	0.00662248
563.112	0.00555384
572.755	0.00609955
582.397	0.0095885
592.039	0.013209
601.682	0.00700967
611.324	0.00676624
620.966	0.00723763
630.609	0.00829801
640.251	0.0108149
649.893	0.0208318
659.536	0.0468488
669.178	0.0216503
678.82	0.012874
688.463	0.0214669
698.105	0.012295
707.747	0.0106528
717.39	0.00827111
727.032	0.0213063
736.674	0.00797196
746.317	0.00931598
755.959	0.0136845
765.601	0.0248784
775.244	0.0331486
784.886	0.0400761
794.528	0.0217436
804.171	0.0304307
813.813	0.0159536
823.455	0.00799116
833.098	0.00773237
842.74	0.00849963
852.382	0.0102431
862.025	0.0187415
871.667	0.0239257
881.309	0.0124786
890.952	0.00978685
900.594	0.0109695
910.236	0.0126189
919.879	0.0144778
929.521	0.0165416
939.163	0.0194205
948.806	0.0226563
958.448	0.0271639
968.09	0.0330222
977.733	0.0409564
987.375	0.0504276
997.017	0.0634444
1006.66	0.0827701
1016.3	0.10711
1025.94	0.128826
1035.59	0.156918
1045.23	0.162667
1054.87	0.151186
1064.51	0.140331
1074.16	0.108101
1083.8	0.0638535
1093.44	0.0404442
1103.08	0.0280502
1112.72	0.022812
1122.37	0.0255327
1132.01	0.0338263
1141.65	0.0453758
1151.3	0.0474464
1160.94	0.0501458
1170.58	0.0509745
1180.22	0.0535529
1189.86	0.0625036
1199.51	0.0494721
1209.15	0.0328514
1218.79	0.0197783
1228.43	0.0119217
1238.08	0.00805407
1247.72	0.00596461
1257.36	0.0047558
1267	0.00396021
1276.64	0.00370399
1286.29	0.00347159
1295.93	0.00336593
1305.57	0.00344189
1315.21	0.00351287
1324.86	0.0039254
1334.5	0.0045107
1344.14	0.00498615
1353.78	0.00599786
1363.43	0.00849392
1373.07	0.0127501
1382.71	0.0223443
1392.35	0.0633186
1401.99	0.0415404
1411.64	0.0315998
1421.28	0.0280852
1430.92	0.0347873
1440.57	0.0769555
1450.21	0.10934
1459.85	0.0552131
1469.49	0.0303836
1479.13	0.0558452
1488.78	0.0248681
1498.42	0.0232411
1508.06	0.039728
1517.7	0.089904
1527.35	0.0919375
1536.99	0.0267345
1546.63	0.0102438
1556.27	0.00585004
1565.91	0.00333754
1575.56	0.0026844
1585.2	0.00256569
1594.84	0.00275572
1604.48	0.00339768
1614.13	0.00333792
1623.77	0.00485265
1633.41	0.00306535
1643.05	0.00223613
1652.7	0.00216147
1662.34	0.00192425
1671.98	0.00174713
1681.62	0.00150624
1691.27	0.00114492
1700.91	0.00141419
1710.55	0.00118198
1720.19	0.00175974
1729.84	0.00057235
1739.48	0.000311356
1749.12	0.000644447
1758.76	0.001637
1768.4	0.00228976
1778.05	0.00161611
1787.69	0.00224641
1797.33	0.00211102
1806.97	0.00193614
1816.62	0.00120427
1826.26	0.00109116
1835.9	0.00110405
1845.54	0.00113012
1855.18	0.00150206
1864.83	0.00155822
1874.47	0.000894049
1884.11	0.00101578
1893.75	0.000157073
1903.4	0.000578276
1913.04	0.000559259
1922.68	0.000504706
1932.32	0.000776543
1941.97	0.00117563
1951.61	0.00037462
1961.25	-0.000312646
1970.89	-0.00020405
1980.54	-0.000819112
1990.18	-0.000309479
1999.82	-0.00072434
2009.46	-0.0010584
2019.11	-0.00143706
2028.75	-0.00190532
2038.39	-0.00238635
2048.03	-0.000456645
2057.67	-0.00213146
2067.32	-0.00135525
2076.96	-0.00119547
2086.6	-0.00168967
2096.24	-0.00193385
2105.89	-0.0010947
2115.53	-0.00167706
2125.17	-0.00175906
2134.81	-0.00300123
2144.45	-0.00209694
2154.1	-0.00371107
2163.74	-0.00293956
2173.38	4.16244e-05
2183.02	0.000851735
2192.67	0.000386296
2202.31	0.0014718
2211.95	0.00157734
2221.59	0.00248298
2231.24	0.00255083
2240.88	0.0020318
2250.52	0.00156257
2260.16	0.000997345
2269.8	0.00169212
2279.45	0.00184572
2289.09	0.00174236
2298.73	0.00186751
2308.38	0.00212297
2318.02	0.00242351
2327.66	0.00243003
2337.3	0.00268824
2346.94	0.00223863
2356.59	0.00267268
2366.23	0.00217225
2375.87	0.00219735
2385.51	0.00181908
2395.16	0.00186905
2404.8	0.00162891
2414.44	0.00185035
2424.08	0.00243739
2433.72	0.00221886
2443.37	0.00280211
2453.01	0.00276248
2462.65	0.00244918
2472.29	0.00267128
2481.94	0.00363423
2491.58	0.00287934
2501.22	0.003192
2510.86	0.00296219
2520.51	0.00350889
2530.15	0.00337186
2539.79	0.00398766
2549.43	0.00335604
2559.07	0.00290565
2568.72	0.0038005
2578.36	0.00345068
2588	0.00315844
2597.64	0.00316805
2607.29	0.00339312
2616.93	0.00329261
2626.57	0.00312592
2636.21	0.00322183
2645.86	0.00335477
2655.5	0.00337432
2665.14	0.00301342
2674.78	0.003467
2684.43	0.00346175
2694.07	0.00339021
2703.71	0.00339623
2713.35	0.00362305
2722.99	0.00369701
2732.64	0.0032793
2742.28	0.00336394
2751.92	0.00343347
2761.56	0.00331429
2771.21	0.00295945
2780.85	0.00251447
2790.49	0.00224943
2800.13	0.00290859
2809.78	0.00323296
2819.42	0.00303248
2829.06	0.00310873
2838.7	0.0025861
2848.34	0.000246443
2857.99	0.000516488
2867.63	0.00226563
2877.27	0.00198809
2886.91	0.00085497
2896.56	0.000435704
2906.2	-0.000361821
2915.84	-0.00217108
2925.48	-0.00255627
2935.13	0.00046612
2944.77	0.00139233
2954.41	0.00130154
2964.05	0.00170617
2973.7	0.0029041
2983.34	0.00300804
2992.98	0.00384234
3002.62	0.003203
3012.26	0.00372586
3021.91	0.0026014
3031.55	0.00286808
3041.19	0.00202344
3050.83	0.0019112
3060.48	0.00291181
3070.12	0.00370816
3079.76	0.0041601
3089.4	0.00381327
3099.05	0.00397861
3108.69	0.0043891
3118.33	0.00458548
3127.97	0.00506885
3137.61	0.00519123
3147.26	0.00488701
3156.9	0.00473036
3166.54	0.00490495
3176.18	0.0055625
3185.83	0.00495792
3195.47	0.00517366
3205.11	0.00507554
3214.75	0.00455862
3224.4	0.004447
3234.04	0.00452523
3243.68	0.00477433
3253.32	0.00455924
3262.97	0.00498216
3272.61	0.0046473
3282.25	0.00551536
3291.89	0.00538977
3301.53	0.00507124
3311.18	0.00527885
3320.82	0.00452148
3330.46	0.00528489
3340.1	0.00536851
3349.75	0.0046574
3359.39	0.0050274
3369.03	0.00475253
3378.67	0.00536747
3388.32	0.00501313
3397.96	0.00513393
3407.6	0.00565277
3417.24	0.00501934
3426.89	0.00564556
3436.53	0.00521357
3446.17	0.00540971
3455.81	0.00544576
3465.45	0.00543503
3475.1	0.0062897
3484.74	0.00591067
3494.38	0.00560172
3504.02	0.0056399
3513.67	0.00611239
3523.31	0.00545254
3532.95	0.00563735
3542.59	0.00634338
3552.24	0.00583694
3561.88	0.0063887
3571.52	0.00626068
3581.16	0.0076342
3590.8	0.00652075
3600.45	0.00635882
3610.09	0.00572322
3619.73	0.00644622
3629.37	0.00760006
3639.02	0.00708919
3648.66	0.00830775
3658.3	0.00689299
3667.94	0.00587458
3677.59	0.00586202
3687.23	0.00595366
3696.87	0.00474071
3706.51	0.00577316
3716.16	0.00499948
3725.8	0.00550018
3735.44	0.00632174
3745.08	0.00543116
3754.72	0.00430289
3764.37	0.00535463
3774.01	0.00478758
3783.65	0.00572321
3793.29	0.00464692
3802.94	0.00582509
3812.58	0.00556973
3822.22	0.00552612
3831.86	0.00491343
3841.51	0.00456672
3851.15	0.00598538
3860.79	0.00547305
3870.43	0.00544079
3880.07	0.00597808
3889.72	0.00568707
3899.36	0.00501281
3909	0.00510926
3918.64	0.00510428
3928.29	0.00629991
3937.93	0.00399852
3947.57	0.00548584
3957.21	0.00395896
3966.86	0.00567721
3976.5	0.00522153
3986.14	0.00507562
3995.78	0.00500637
