Measurement: Infrared, Infrared Data Processed
Mineral: Carnallite
Rruff sample: R050353
Ideal chemistry: KMgCl_3_6H_2_O
Locality: Strassfurt, Germany
Source: California Institute of Technology
Description: Colorless single crystals and grains associated with halite, sylvite, and anhydrite.
x	intensity
399.193	0.0431578
408.835	0.04066
418.477	0.0386262
428.12	0.0409774
437.762	0.0446157
447.404	0.04838
457.047	0.0452701
466.689	0.0453083
476.331	0.0438259
485.974	0.0451528
495.616	0.0433933
505.258	0.0422023
514.901	0.0394881
524.543	0.0373058
534.185	0.0352422
543.828	0.0330546
553.47	0.0311165
563.112	0.0306055
572.755	0.0311833
582.397	0.0347438
592.039	0.0466977
601.682	0.044307
611.324	0.0521591
620.966	0.0485129
630.609	0.0421559
640.251	0.0388925
649.893	0.0338777
659.536	0.0303286
669.178	0.0314835
678.82	0.0315625
688.463	0.0173221
698.105	0.0127992
707.747	0.0109237
717.39	0.0105502
727.032	0.0104066
736.674	0.0107291
746.317	0.0112721
755.959	0.0111453
765.601	0.0106366
775.244	0.0103229
784.886	0.00942821
794.528	0.0094098
804.171	0.00957663
813.813	0.00994647
823.455	0.0101659
833.098	0.0102096
842.74	0.0110353
852.382	0.0108735
862.025	0.0113002
871.667	0.0114354
881.309	0.0120825
890.952	0.0118844
900.594	0.0129797
910.236	0.013491
919.879	0.0140068
929.521	0.0147858
939.163	0.0156738
948.806	0.0162602
958.448	0.0170788
968.09	0.017705
977.733	0.019103
987.375	0.0229727
997.017	0.0205299
1006.66	0.0206007
1016.3	0.0216482
1025.94	0.022106
1035.59	0.0241485
1045.23	0.0258923
1054.87	0.0285889
1064.51	0.0332739
1074.16	0.0395093
1083.8	0.0476957
1093.44	0.0524858
1103.08	0.0563098
1112.72	0.0590006
1122.37	0.0608741
1132.01	0.0632735
1141.65	0.0662972
1151.3	0.0675321
1160.94	0.0648898
1170.58	0.0547175
1180.22	0.045525
1189.86	0.0375952
1199.51	0.0307985
1209.15	0.0213108
1218.79	0.0160481
1228.43	0.0133934
1238.08	0.0120144
1247.72	0.0108705
1257.36	0.00996361
1267	0.0093773
1276.64	0.00925886
1286.29	0.00830666
1295.93	0.00814164
1305.57	0.00788942
1315.21	0.00800744
1324.86	0.00837215
1334.5	0.00747694
1344.14	0.00745869
1353.78	0.00747367
1363.43	0.00725784
1373.07	0.00715517
1382.71	0.00704918
1392.35	0.00770094
1401.99	0.00780584
1411.64	0.00802489
1421.28	0.00779158
1430.92	0.00825395
1440.57	0.0072375
1450.21	0.00669434
1459.85	0.00573393
1469.49	0.00621268
1479.13	0.00847493
1488.78	0.0084741
1498.42	0.00833278
1508.06	0.00871045
1517.7	0.00853533
1527.35	0.00913844
1536.99	0.00883155
1546.63	0.00963634
1556.27	0.00956304
1565.91	0.00937458
1575.56	0.00978199
1585.2	0.00967495
1594.84	0.0103548
1604.48	0.0129188
1614.13	0.0184143
1623.77	0.0399938
1633.41	0.0905453
1643.05	0.0665906
1652.7	0.0259848
1662.34	0.0108909
1671.98	0.00825742
1681.62	0.0082209
1691.27	0.00823104
1700.91	0.0080012
1710.55	0.00684669
1720.19	0.00940329
1729.84	0.00889163
1739.48	0.00546743
1749.12	0.00450575
1758.76	0.00643776
1768.4	0.00804806
1778.05	0.00776231
1787.69	0.00822562
1797.33	0.00797675
1806.97	0.00780714
1816.62	0.00810892
1826.26	0.00799754
1835.9	0.00906531
1845.54	0.00925537
1855.18	0.0100774
1864.83	0.00902711
1874.47	0.00859165
1884.11	0.0100952
1893.75	0.0092957
1903.4	0.00807521
1913.04	0.00927126
1922.68	0.00884785
1932.32	0.00785579
1941.97	0.00711186
1951.61	0.00731074
1961.25	0.00608935
1970.89	0.00384206
1980.54	0.00860309
1990.18	0.00897274
1999.82	0.00890313
2009.46	0.00784659
2019.11	0.0114506
2028.75	0.00784043
2038.39	0.0104519
2048.03	0.0102774
2057.67	0.0118015
2067.32	0.0100108
2076.96	0.0086361
2086.6	0.0112683
2096.24	0.0106748
2105.89	0.0117143
2115.53	0.00992305
2125.17	0.00808975
2134.81	0.00579236
2144.45	0.00821822
2154.1	0.00752948
2163.74	0.0065439
2173.38	0.00352946
2183.02	0.0065355
2192.67	0.00586666
2202.31	0.0100067
2211.95	0.00925735
2221.59	0.0088948
2231.24	0.0102197
2240.88	0.0129346
2250.52	0.0119771
2260.16	0.0114586
2269.8	0.0103245
2279.45	0.0127735
2289.09	0.0133899
2298.73	0.0129205
2308.38	0.0127992
2318.02	0.0147471
2327.66	0.0150424
2337.3	0.0147221
2346.94	0.0129633
2356.59	0.01428
2366.23	0.0144158
2375.87	0.0111703
2385.51	0.0095748
2395.16	0.0101926
2404.8	0.00909704
2414.44	0.00950424
2424.08	0.0098624
2433.72	0.0104286
2443.37	0.00926157
2453.01	0.0107723
2462.65	0.00968966
2472.29	0.0101696
2481.94	0.00966223
2491.58	0.00801734
2501.22	0.00902533
2510.86	0.00907396
2520.51	0.00887136
2530.15	0.00812321
2539.79	0.0104422
2549.43	0.00992627
2559.07	0.00938851
2568.72	0.00957153
2578.36	0.0105991
2588	0.00977079
2597.64	0.0104754
2607.29	0.00980404
2616.93	0.0102956
2626.57	0.0106658
2636.21	0.0109113
2645.86	0.0115274
2655.5	0.0109275
2665.14	0.010226
2674.78	0.009968
2684.43	0.0102052
2694.07	0.0109242
2703.71	0.0101838
2713.35	0.0109045
2722.99	0.0125619
2732.64	0.011602
2742.28	0.0114533
2751.92	0.0111215
2761.56	0.0102956
2771.21	0.0115203
2780.85	0.0115464
2790.49	0.0101335
2800.13	0.0105738
2809.78	0.0106749
2819.42	0.0102993
2829.06	0.00870709
2838.7	0.00651308
2848.34	-0.00118538
2857.99	-0.00285022
2867.63	0.00488847
2877.27	0.00505863
2886.91	0.00514445
2896.56	0.00309996
2906.2	-0.00122215
2915.84	-0.00877297
2925.48	-0.0143403
2935.13	-0.00493728
2944.77	0.00335492
2954.41	0.00430092
2964.05	0.00637483
2973.7	0.0100791
2983.34	0.0118835
2992.98	0.0125326
3002.62	0.0151055
3012.26	0.0165861
3021.91	0.0157515
3031.55	0.0158616
3041.19	0.0175247
3050.83	0.0181085
3060.48	0.0191115
3070.12	0.0194123
3079.76	0.0211129
3089.4	0.0217534
3099.05	0.0210498
3108.69	0.0234763
3118.33	0.0263498
3127.97	0.0274651
3137.61	0.0304
3147.26	0.031488
3156.9	0.0331796
3166.54	0.0365964
3176.18	0.0399266
3185.83	0.0428595
3195.47	0.0475768
3205.11	0.0555168
3214.75	0.0638026
3224.4	0.0771343
3234.04	0.086096
3243.68	0.0925408
3253.32	0.0867744
3262.97	0.0801091
3272.61	0.0782546
3282.25	0.0881893
3291.89	0.0960898
3301.53	0.105872
3311.18	0.118358
3320.82	0.13564
3330.46	0.150512
3340.1	0.166894
3349.75	0.185944
3359.39	0.204511
3369.03	0.22014
3378.67	0.234193
3388.32	0.236296
3397.96	0.227868
3407.6	0.213718
3417.24	0.197314
3426.89	0.173198
3436.53	0.151935
3446.17	0.13362
3455.81	0.117612
3465.45	0.104145
3475.1	0.0877447
3484.74	0.0796195
3494.38	0.0705219
3504.02	0.0612796
3513.67	0.0525597
3523.31	0.048875
3532.95	0.0440636
3542.59	0.0397185
3552.24	0.0363668
3561.88	0.0337844
3571.52	0.0272828
3581.16	0.0243022
3590.8	0.0225929
3600.45	0.022734
3610.09	0.020888
3619.73	0.0225711
3629.37	0.0139834
3639.02	0.0186523
3648.66	0.0128321
3658.3	0.0150801
3667.94	0.0102753
3677.59	0.0114864
3687.23	0.009263
3696.87	0.0137974
3706.51	0.0109375
3716.16	0.0120365
3725.8	0.0158944
3735.44	0.0154469
3745.08	0.0142189
3754.72	0.0136997
3764.37	0.0155353
3774.01	0.0125494
3783.65	0.011487
3793.29	0.0138178
3802.94	0.0126987
3812.58	0.0111608
3822.22	0.0169368
3831.86	0.0127008
3841.51	0.0187667
3851.15	0.0135553
3860.79	0.0153093
3870.43	0.0123573
3880.07	0.0102256
3889.72	0.0176236
3899.36	0.0123949
3909	0.015035
3918.64	0.0166319
3928.29	0.0143813
3937.93	0.0121805
3947.57	0.0113596
3957.21	0.0138661
3966.86	0.0157401
3976.5	0.0149547
3986.14	0.0141922
3995.78	0.0175634
