Measurement: Infrared, Infrared Data Processed
Mineral: Carrollite
Rruff sample: R040165
Ideal chemistry: Cu^1+^Co^3+^_2_S_4_
Locality: Katanga, Democratic Republic of the Congo
Source: University of Arizona Mineral Museum
Description: Steel gray octahedral crystals that have a tarnished exterior
Measured chemistry: (Cu_0.97_Fe_0.03_)Co_1.98_S_4_
x	intensity
399.193	0
408.835	0.2339
418.477	0.236554
428.12	0.2369
437.762	0.240659
447.404	0.24292
457.047	0.249845
466.689	0.255186
476.331	0.260867
485.974	0.264503
495.616	0.267226
505.258	0.271087
514.901	0.27298
524.543	0.272986
534.185	0.275033
543.828	0.27648
553.47	0.2792
563.112	0.28272
572.755	0.285739
582.397	0.292168
592.039	0.29797
601.682	0.297272
611.324	0.294615
620.966	0.305049
630.609	0.296525
640.251	0.300511
649.893	0.309661
659.536	0.317414
669.178	0.315018
678.82	0.29914
688.463	0.308707
698.105	0.316195
707.747	0.322599
717.39	0.327425
727.032	0.333104
736.674	0.337674
746.317	0.342865
755.959	0.348199
765.601	0.353511
775.244	0.358931
784.886	0.361698
794.528	0.362644
804.171	0.359843
813.813	0.356534
823.455	0.354927
833.098	0.35489
842.74	0.359252
852.382	0.36239
862.025	0.364173
871.667	0.364268
881.309	0.363111
890.952	0.362881
900.594	0.366121
910.236	0.371114
919.879	0.376495
929.521	0.382409
939.163	0.387636
948.806	0.392911
958.448	0.398643
968.09	0.403989
977.733	0.408939
987.375	0.414881
997.017	0.421547
1006.66	0.428828
1016.3	0.432575
1025.94	0.415955
1035.59	0.432304
1045.23	0.441436
1054.87	0.449091
1064.51	0.455691
1074.16	0.458261
1083.8	0.455478
1093.44	0.451165
1103.08	0.444619
1112.72	0.436712
1122.37	0.425898
1132.01	0.416736
1141.65	0.411969
1151.3	0.396895
1160.94	0.374889
1170.58	0.355464
1180.22	0.337111
1189.86	0.321939
1199.51	0.313395
1209.15	0.309729
1218.79	0.307804
1228.43	0.310779
1238.08	0.31962
1247.72	0.331037
1257.36	0.340734
1267	0.349238
1276.64	0.356996
1286.29	0.363682
1295.93	0.369405
1305.57	0.374532
1315.21	0.378754
1324.86	0.383512
1334.5	0.387645
1344.14	0.391143
1353.78	0.395524
1363.43	0.399124
1373.07	0.40236
1382.71	0.40568
1392.35	0.409491
1401.99	0.412559
1411.64	0.415704
1421.28	0.419089
1430.92	0.422512
1440.57	0.424396
1450.21	0.427923
1459.85	0.430543
1469.49	0.433409
1479.13	0.43566
1488.78	0.437607
1498.42	0.437801
1508.06	0.435803
1517.7	0.435299
1527.35	0.436419
1536.99	0.438467
1546.63	0.440729
1556.27	0.443024
1565.91	0.44562
1575.56	0.447991
1585.2	0.449476
1594.84	0.452778
1604.48	0.454808
1614.13	0.456041
1623.77	0.457682
1633.41	0.458629
1643.05	0.460421
1652.7	0.461192
1662.34	0.462145
1671.98	0.463263
1681.62	0.463659
1691.27	0.46472
1700.91	0.465336
1710.55	0.466349
1720.19	0.467015
1729.84	0.467392
1739.48	0.467655
1749.12	0.468209
1758.76	0.469235
1768.4	0.471005
1778.05	0.471897
1787.69	0.472468
1797.33	0.473157
1806.97	0.474659
1816.62	0.474665
1826.26	0.476346
1835.9	0.476514
1845.54	0.477021
1855.18	0.478284
1864.83	0.477729
1874.47	0.480131
1884.11	0.4793
1893.75	0.480319
1903.4	0.48075
1913.04	0.4805
1922.68	0.47901
1932.32	0.478984
1941.97	0.477395
1951.61	0.476799
1961.25	0.472125
1970.89	0.4676
1980.54	0.471808
1990.18	0.474893
1999.82	0.476809
2009.46	0.474888
2019.11	0.472234
2028.75	0.477102
2038.39	0.478417
2048.03	0.481065
2057.67	0.490202
2067.32	0.492709
2076.96	0.495966
2086.6	0.497839
2096.24	0.497669
2105.89	0.500553
2115.53	0.501537
2125.17	0.500979
2134.81	0.496169
2144.45	0.490161
2154.1	0.480701
2163.74	0.489957
2173.38	0.492518
2183.02	0.495847
2192.67	0.498306
2202.31	0.501113
2211.95	0.503116
2221.59	0.509054
2231.24	0.508795
2240.88	0.51375
2250.52	0.516307
2260.16	0.51695
2269.8	0.521832
2279.45	0.524848
2289.09	0.52935
2298.73	0.531142
2308.38	0.534004
2318.02	0.536638
2327.66	0.538345
2337.3	0.538779
2346.94	0.54078
2356.59	0.540325
2366.23	0.539691
2375.87	0.542536
2385.51	0.542873
2395.16	0.543027
2404.8	0.544343
2414.44	0.545717
2424.08	0.54567
2433.72	0.547521
2443.37	0.547928
2453.01	0.548651
2462.65	0.55179
2472.29	0.550607
2481.94	0.553378
2491.58	0.552715
2501.22	0.554251
2510.86	0.555579
2520.51	0.555114
2530.15	0.55586
2539.79	0.558104
2549.43	0.558323
2559.07	0.56014
2568.72	0.56209
2578.36	0.563764
2588	0.565387
2597.64	0.565626
2607.29	0.569443
2616.93	0.570329
2626.57	0.573619
2636.21	0.573549
2645.86	0.576308
2655.5	0.577584
2665.14	0.58012
2674.78	0.581081
2684.43	0.581424
2694.07	0.582827
2703.71	0.585031
2713.35	0.583709
2722.99	0.586291
2732.64	0.587681
2742.28	0.588567
2751.92	0.589503
2761.56	0.59172
2771.21	0.592821
2780.85	0.593472
2790.49	0.595091
2800.13	0.595179
2809.78	0.596647
2819.42	0.598085
2829.06	0.598749
2838.7	0.600515
2848.34	0.598983
2857.99	0.600796
2867.63	0.603184
2877.27	0.604013
2886.91	0.605642
2896.56	0.60645
2906.2	0.606668
2915.84	0.607848
2925.48	0.61071
2935.13	0.60873
2944.77	0.610719
2954.41	0.612413
2964.05	0.614637
2973.7	0.616283
2983.34	0.617152
2992.98	0.619678
3002.62	0.620924
3012.26	0.622535
3021.91	0.623473
3031.55	0.625915
3041.19	0.625439
3050.83	0.626686
3060.48	0.629373
3070.12	0.630443
3079.76	0.63133
3089.4	0.634107
3099.05	0.635173
3108.69	0.635853
3118.33	0.639382
3127.97	0.640213
3137.61	0.641219
3147.26	0.6428
3156.9	0.646027
3166.54	0.646539
3176.18	0.647837
3185.83	0.64698
3195.47	0.649443
3205.11	0.651599
3214.75	0.650121
3224.4	0.652623
3234.04	0.652749
3243.68	0.654278
3253.32	0.654973
3262.97	0.653799
3272.61	0.651596
3282.25	0.653398
3291.89	0.650153
3301.53	0.649383
3311.18	0.644002
3320.82	0.642418
3330.46	0.636977
3340.1	0.6346
3349.75	0.631696
3359.39	0.628733
3369.03	0.627621
3378.67	0.626277
3388.32	0.626108
3397.96	0.624039
3407.6	0.623553
3417.24	0.623358
3426.89	0.622437
3436.53	0.621999
3446.17	0.620351
3455.81	0.619986
3465.45	0.620834
3475.1	0.61998
3484.74	0.618948
3494.38	0.619332
3504.02	0.619412
3513.67	0.618668
3523.31	0.623503
3532.95	0.621017
3542.59	0.626578
3552.24	0.624491
3561.88	0.623762
3571.52	0.626437
3581.16	0.627768
3590.8	0.629266
3600.45	0.631312
3610.09	0.631887
3619.73	0.634321
3629.37	0.634117
3639.02	0.634029
3648.66	0.637815
3658.3	0.639244
3667.94	0.638218
3677.59	0.643051
3687.23	0.645846
3696.87	0.64475
3706.51	0.651892
3716.16	0.649079
3725.8	0.654068
3735.44	0.65345
3745.08	0.655838
3754.72	0.656684
3764.37	0.657567
3774.01	0.662307
3783.65	0.662505
3793.29	0.660948
3802.94	0.667551
3812.58	0.664943
3822.22	0.666259
3831.86	0.667713
3841.51	0.671057
3851.15	0.669328
3860.79	0.671145
3870.43	0.674993
3880.07	0.674722
3889.72	0.674593
3899.36	0.681016
3909	0.677082
3918.64	0.677575
3928.29	0.676836
3937.93	0.67959
3947.57	0.684808
3957.21	0.682244
3966.86	0.685206
3976.5	0.68579
3986.14	0.687311
3995.78	0.688856
