Measurement: Infrared, Infrared Data Processed
Mineral: Cassiterite
Rruff sample: R040017
Ideal chemistry: SnO_2_
Locality: Bolivia
Source: University of Arizona Mineral Museum
Description: Dark brown short prismatic single crystals
Measured chemistry: Sn_1.00_O_2_; trace amounts of Fe
x	intensity
399.193	0.22459
408.835	0.237501
418.477	0.251271
428.12	0.266706
437.762	0.278325
447.404	0.294758
457.047	0.308569
466.689	0.317688
476.331	0.317224
485.974	0.319653
495.616	0.319576
505.258	0.321002
514.901	0.318544
524.543	0.316942
534.185	0.312711
543.828	0.310965
553.47	0.311089
563.112	0.312624
572.755	0.318336
582.397	0.324228
592.039	0.329035
601.682	0.327067
611.324	0.315119
620.966	0.297009
630.609	0.276361
640.251	0.255788
649.893	0.235208
659.536	0.217416
669.178	0.201485
678.82	0.184683
688.463	0.168805
698.105	0.155424
707.747	0.142326
717.39	0.13218
727.032	0.122402
736.674	0.112271
746.317	0.103903
755.959	0.0978952
765.601	0.0963821
775.244	0.0968827
784.886	0.0969062
794.528	0.097297
804.171	0.0974342
813.813	0.0975115
823.455	0.0969028
833.098	0.0961347
842.74	0.0952879
852.382	0.0941458
862.025	0.0937431
871.667	0.0932369
881.309	0.0929341
890.952	0.0924303
900.594	0.091679
910.236	0.0908874
919.879	0.0903233
929.521	0.0899612
939.163	0.089179
948.806	0.0884703
958.448	0.087801
968.09	0.0871808
977.733	0.0862095
987.375	0.0856485
997.017	0.0855106
1006.66	0.0849562
1016.3	0.0846938
1025.94	0.0842835
1035.59	0.0837649
1045.23	0.0830145
1054.87	0.0828046
1064.51	0.0826373
1074.16	0.0819655
1083.8	0.0816541
1093.44	0.0811375
1103.08	0.0804807
1112.72	0.0791541
1122.37	0.0780197
1132.01	0.0773105
1141.65	0.0761787
1151.3	0.0752814
1160.94	0.074566
1170.58	0.0737064
1180.22	0.0731542
1189.86	0.0724922
1199.51	0.071487
1209.15	0.0709425
1218.79	0.0702194
1228.43	0.0696075
1238.08	0.0688393
1247.72	0.0684757
1257.36	0.0678182
1267	0.0675133
1276.64	0.0670634
1286.29	0.0666441
1295.93	0.0663453
1305.57	0.0662235
1315.21	0.0655115
1324.86	0.0652453
1334.5	0.0650109
1344.14	0.0646075
1353.78	0.0644415
1363.43	0.0642972
1373.07	0.0641348
1382.71	0.0636472
1392.35	0.0633124
1401.99	0.062864
1411.64	0.0625754
1421.28	0.062303
1430.92	0.0619345
1440.57	0.0617296
1450.21	0.0618488
1459.85	0.0616647
1469.49	0.0609909
1479.13	0.0607765
1488.78	0.0606089
1498.42	0.0606076
1508.06	0.0605246
1517.7	0.0603588
1527.35	0.0600732
1536.99	0.0598821
1546.63	0.0597807
1556.27	0.0597299
1565.91	0.0595372
1575.56	0.05985
1585.2	0.0595142
1594.84	0.0594237
1604.48	0.0595792
1614.13	0.0596303
1623.77	0.0596078
1633.41	0.0596823
1643.05	0.0594399
1652.7	0.0595991
1662.34	0.0590367
1671.98	0.0587853
1681.62	0.0586256
1691.27	0.0586642
1700.91	0.0587943
1710.55	0.0586284
1720.19	0.0587197
1729.84	0.0585336
1739.48	0.0583785
1749.12	0.0573041
1758.76	0.0573953
1768.4	0.057188
1778.05	0.0573142
1787.69	0.0575064
1797.33	0.0574929
1806.97	0.057431
1816.62	0.0568718
1826.26	0.0574662
1835.9	0.0575437
1845.54	0.0579185
1855.18	0.058039
1864.83	0.0578678
1874.47	0.0577308
1884.11	0.0577375
1893.75	0.0580753
1903.4	0.0582181
1913.04	0.0583363
1922.68	0.0585162
1932.32	0.0582063
1941.97	0.0583487
1951.61	0.059458
1961.25	0.0594685
1970.89	0.0577572
1980.54	0.0630672
1990.18	0.0599959
1999.82	0.0599355
2009.46	0.0597434
2019.11	0.0605928
2028.75	0.0601977
2038.39	0.0612767
2048.03	0.0618213
2057.67	0.0609481
2067.32	0.060861
2076.96	0.0627519
2086.6	0.0613257
2096.24	0.0602994
2105.89	0.0616513
2115.53	0.0607654
2125.17	0.0599156
2134.81	0.0586997
2144.45	0.0601564
2154.1	0.057161
2163.74	0.0651685
2173.38	0.0636198
2183.02	0.0652915
2192.67	0.0646432
2202.31	0.0629583
2211.95	0.0648871
2221.59	0.0648559
2231.24	0.0650457
2240.88	0.0652832
2250.52	0.0653372
2260.16	0.0653756
2269.8	0.0662262
2279.45	0.0666122
2289.09	0.0672778
2298.73	0.0665514
2308.38	0.0673353
2318.02	0.0672488
2327.66	0.066477
2337.3	0.0661716
2346.94	0.0666784
2356.59	0.0667972
2366.23	0.0665126
2375.87	0.0664149
2385.51	0.0664543
2395.16	0.0669173
2404.8	0.0669729
2414.44	0.0674205
2424.08	0.0676593
2433.72	0.0677372
2443.37	0.0688537
2453.01	0.0689373
2462.65	0.0688769
2472.29	0.0688489
2481.94	0.0688135
2491.58	0.0691798
2501.22	0.0692289
2510.86	0.0699225
2520.51	0.0703617
2530.15	0.0705671
2539.79	0.0710282
2549.43	0.071038
2559.07	0.0712864
2568.72	0.0717953
2578.36	0.0723165
2588	0.0731708
2597.64	0.0730208
2607.29	0.0736094
2616.93	0.0742613
2626.57	0.0745557
2636.21	0.0751048
2645.86	0.0749967
2655.5	0.0752829
2665.14	0.0746123
2674.78	0.0748914
2684.43	0.0750303
2694.07	0.0755959
2703.71	0.0759492
2713.35	0.075768
2722.99	0.0765132
2732.64	0.0768347
2742.28	0.0770311
2751.92	0.0774881
2761.56	0.0775847
2771.21	0.0782848
2780.85	0.0781386
2790.49	0.0790833
2800.13	0.0791113
2809.78	0.0795901
2819.42	0.0796063
2829.06	0.0802464
2838.7	0.080807
2848.34	0.0819083
2857.99	0.081603
2867.63	0.0825339
2877.27	0.082315
2886.91	0.0822937
2896.56	0.0833716
2906.2	0.0840317
2915.84	0.0850604
2925.48	0.0852589
2935.13	0.0845786
2944.77	0.0846627
2954.41	0.084674
2964.05	0.0848662
2973.7	0.0840713
2983.34	0.0838567
2992.98	0.0838046
3002.62	0.083948
3012.26	0.084413
3021.91	0.0847173
3031.55	0.0849389
3041.19	0.0852157
3050.83	0.0850002
3060.48	0.086105
3070.12	0.0862136
3079.76	0.0866844
3089.4	0.0867224
3099.05	0.0871031
3108.69	0.0871848
3118.33	0.0880042
3127.97	0.0883727
3137.61	0.0881995
3147.26	0.0888048
3156.9	0.0893609
3166.54	0.0898413
3176.18	0.0898882
3185.83	0.0900447
3195.47	0.0908839
3205.11	0.0902609
3214.75	0.0909262
3224.4	0.0908684
3234.04	0.0915274
3243.68	0.0920917
3253.32	0.0922513
3262.97	0.0926676
3272.61	0.092711
3282.25	0.0928563
3291.89	0.0928907
3301.53	0.0930428
3311.18	0.0928233
3320.82	0.0933069
3330.46	0.0937303
3340.1	0.0944165
3349.75	0.0936971
3359.39	0.0947065
3369.03	0.0950884
3378.67	0.0945397
3388.32	0.0947377
3397.96	0.0956973
3407.6	0.0950786
3417.24	0.0952544
3426.89	0.0961679
3436.53	0.0959619
3446.17	0.0961254
3455.81	0.0962481
3465.45	0.0961832
3475.1	0.0959959
3484.74	0.0966939
3494.38	0.0970288
3504.02	0.0969274
3513.67	0.0970553
3523.31	0.0968337
3532.95	0.0975286
3542.59	0.0972002
3552.24	0.0978133
3561.88	0.0972833
3571.52	0.0976934
3581.16	0.0982888
3590.8	0.0984188
3600.45	0.097484
3610.09	0.0986272
3619.73	0.0978646
3629.37	0.0998777
3639.02	0.0993422
3648.66	0.0993506
3658.3	0.098736
3667.94	0.100484
3677.59	0.100491
3687.23	0.100385
3696.87	0.101284
3706.51	0.101621
3716.16	0.100833
3725.8	0.101801
3735.44	0.102802
3745.08	0.102779
3754.72	0.101696
3764.37	0.103163
3774.01	0.103454
3783.65	0.102471
3793.29	0.10347
3802.94	0.103487
3812.58	0.103661
3822.22	0.10382
3831.86	0.104927
3841.51	0.104223
3851.15	0.104305
3860.79	0.104842
3870.43	0.105445
3880.07	0.104956
3889.72	0.104724
3899.36	0.106071
3909	0.10684
3918.64	0.106221
3928.29	0.105715
3937.93	0.106321
3947.57	0.106549
3957.21	0.105715
3966.86	0.10551
3976.5	0.106406
3986.14	0.107309
3995.78	0.108035
