Measurement: Infrared, Infrared Data Processed
Mineral: Cassiterite
Rruff sample: R050502
Ideal chemistry: SnO_2_
Locality: Redruth, Cornwall, England
Source: California Institute of Technology
Description: Black crystals associated with colorless quartz and grey stannite.
Measured chemistry: SnO_2_
x	intensity
399.193	0.530597
408.835	0.546302
418.477	0.559766
428.12	0.558393
437.762	0.557866
447.404	0.575357
457.047	0.58459
466.689	0.59677
476.331	0.587564
485.974	0.560638
495.616	0.549993
505.258	0.546114
514.901	0.533984
524.543	0.518
534.185	0.496022
543.828	0.477499
553.47	0.461454
563.112	0.449226
572.755	0.444664
582.397	0.445136
592.039	0.447324
601.682	0.447731
611.324	0.442784
620.966	0.426358
630.609	0.40691
640.251	0.379575
649.893	0.352893
659.536	0.329331
669.178	0.306557
678.82	0.284658
688.463	0.263198
698.105	0.244207
707.747	0.226232
717.39	0.210685
727.032	0.196684
736.674	0.184426
746.317	0.17275
755.959	0.163113
765.601	0.160485
775.244	0.1622
784.886	0.160603
794.528	0.159651
804.171	0.158706
813.813	0.156968
823.455	0.154826
833.098	0.152038
842.74	0.150759
852.382	0.150369
862.025	0.14924
871.667	0.149761
881.309	0.14946
890.952	0.150074
900.594	0.150212
910.236	0.150085
919.879	0.149158
929.521	0.147473
939.163	0.147426
948.806	0.14842
958.448	0.151266
968.09	0.155616
977.733	0.159951
987.375	0.161431
997.017	0.161486
1006.66	0.160233
1016.3	0.158236
1025.94	0.155982
1035.59	0.149353
1045.23	0.137169
1054.87	0.128419
1064.51	0.123703
1074.16	0.121304
1083.8	0.117115
1093.44	0.11182
1103.08	0.107268
1112.72	0.104028
1122.37	0.100709
1132.01	0.0985794
1141.65	0.0958977
1151.3	0.0939042
1160.94	0.0918733
1170.58	0.0901122
1180.22	0.0888153
1189.86	0.0877342
1199.51	0.086503
1209.15	0.0855125
1218.79	0.084306
1228.43	0.083543
1238.08	0.0823092
1247.72	0.0810537
1257.36	0.0802666
1267	0.079248
1276.64	0.0782375
1286.29	0.0774199
1295.93	0.0766683
1305.57	0.0755496
1315.21	0.0747259
1324.86	0.0738541
1334.5	0.0731516
1344.14	0.0722328
1353.78	0.071564
1363.43	0.0706763
1373.07	0.0701408
1382.71	0.0691994
1392.35	0.0688591
1401.99	0.0677507
1411.64	0.0673402
1421.28	0.0663797
1430.92	0.0658424
1440.57	0.0650647
1450.21	0.0643829
1459.85	0.0634896
1469.49	0.062609
1479.13	0.0623324
1488.78	0.0620133
1498.42	0.0615258
1508.06	0.0609348
1517.7	0.0603883
1527.35	0.0597355
1536.99	0.0591263
1546.63	0.0585578
1556.27	0.0582521
1565.91	0.0576192
1575.56	0.0574445
1585.2	0.0566644
1594.84	0.0563407
1604.48	0.0562732
1614.13	0.0556455
1623.77	0.0550627
1633.41	0.0546528
1643.05	0.0543463
1652.7	0.0541244
1662.34	0.0533578
1671.98	0.0525876
1681.62	0.0520314
1691.27	0.0518163
1700.91	0.0512954
1710.55	0.0502242
1720.19	0.0503376
1729.84	0.0497886
1739.48	0.0480545
1749.12	0.0469327
1758.76	0.0478809
1768.4	0.0477842
1778.05	0.0475934
1787.69	0.0474234
1797.33	0.0470815
1806.97	0.046827
1816.62	0.0459812
1826.26	0.0457295
1835.9	0.0449831
1845.54	0.0451489
1855.18	0.0444849
1864.83	0.045186
1874.47	0.0442522
1884.11	0.0434462
1893.75	0.0428144
1903.4	0.0427787
1913.04	0.042277
1922.68	0.0417663
1932.32	0.0414408
1941.97	0.0403444
1951.61	0.0399827
1961.25	0.0387952
1970.89	0.0366852
1980.54	0.0369421
1990.18	0.0384263
1999.82	0.0376905
2009.46	0.0363218
2019.11	0.0354748
2028.75	0.037451
2038.39	0.0364783
2048.03	0.0383886
2057.67	0.037788
2067.32	0.0384258
2076.96	0.0392709
2086.6	0.037956
2096.24	0.0387449
2105.89	0.0390524
2115.53	0.0383497
2125.17	0.0372351
2134.81	0.0357115
2144.45	0.0362719
2154.1	0.033354
2163.74	0.0366975
2173.38	0.0346728
2183.02	0.0358419
2192.67	0.0360595
2202.31	0.0371914
2211.95	0.0383201
2221.59	0.0375299
2231.24	0.0381938
2240.88	0.0376535
2250.52	0.0374996
2260.16	0.0390055
2269.8	0.0386239
2279.45	0.0388155
2289.09	0.038533
2298.73	0.0392047
2308.38	0.039433
2318.02	0.0393037
2327.66	0.0392809
2337.3	0.0398477
2346.94	0.0389474
2356.59	0.0394162
2366.23	0.0395233
2375.87	0.0386091
2385.51	0.0381879
2395.16	0.038086
2404.8	0.038238
2414.44	0.0378179
2424.08	0.0380971
2433.72	0.0374155
2443.37	0.0376624
2453.01	0.0378466
2462.65	0.0378512
2472.29	0.037658
2481.94	0.0380895
2491.58	0.03747
2501.22	0.0373627
2510.86	0.0371656
2520.51	0.0371983
2530.15	0.0370628
2539.79	0.0369411
2549.43	0.0373823
2559.07	0.0373364
2568.72	0.0368091
2578.36	0.0374588
2588	0.0376846
2597.64	0.0372898
2607.29	0.037477
2616.93	0.0385058
2626.57	0.0379929
2636.21	0.0381597
2645.86	0.0382812
2655.5	0.0380195
2665.14	0.037612
2674.78	0.0374212
2684.43	0.0375071
2694.07	0.0376914
2703.71	0.0376708
2713.35	0.0380308
2722.99	0.038031
2732.64	0.0377347
2742.28	0.0381079
2751.92	0.0376459
2761.56	0.038099
2771.21	0.037685
2780.85	0.0380616
2790.49	0.0380463
2800.13	0.0378275
2809.78	0.0376443
2819.42	0.0379831
2829.06	0.0376185
2838.7	0.0380604
2848.34	0.0362609
2857.99	0.0356962
2867.63	0.0375068
2877.27	0.0373021
2886.91	0.0378061
2896.56	0.0373299
2906.2	0.0367206
2915.84	0.0360523
2925.48	0.0350414
2935.13	0.0357383
2944.77	0.0360307
2954.41	0.0363252
2964.05	0.0371025
2973.7	0.036698
2983.34	0.0375818
2992.98	0.0372733
3002.62	0.0370573
3012.26	0.0373695
3021.91	0.0365227
3031.55	0.038008
3041.19	0.0373914
3050.83	0.0377765
3060.48	0.0374012
3070.12	0.0378249
3079.76	0.0373282
3089.4	0.0371666
3099.05	0.0382021
3108.69	0.0382446
3118.33	0.0382605
3127.97	0.0376941
3137.61	0.0371678
3147.26	0.0380293
3156.9	0.0379968
3166.54	0.0383284
3176.18	0.0383167
3185.83	0.0389178
3195.47	0.0375292
3205.11	0.0381112
3214.75	0.0381046
3224.4	0.0375827
3234.04	0.0380706
3243.68	0.0381351
3253.32	0.0382194
3262.97	0.0387446
3272.61	0.0383534
3282.25	0.0393182
3291.89	0.0382878
3301.53	0.0390261
3311.18	0.0384242
3320.82	0.0387607
3330.46	0.0389692
3340.1	0.0385251
3349.75	0.0386539
3359.39	0.0384349
3369.03	0.0386872
3378.67	0.0381454
3388.32	0.0385358
3397.96	0.0383296
3407.6	0.0395582
3417.24	0.0393028
3426.89	0.0384246
3436.53	0.0384166
3446.17	0.0385865
3455.81	0.0381096
3465.45	0.0381949
3475.1	0.038434
3484.74	0.0395701
3494.38	0.0393125
3504.02	0.0383462
3513.67	0.039001
3523.31	0.0389323
3532.95	0.038039
3542.59	0.0386995
3552.24	0.036545
3561.88	0.0377651
3571.52	0.0381247
3581.16	0.038119
3590.8	0.038426
3600.45	0.0389505
3610.09	0.0400747
3619.73	0.0393216
3629.37	0.0393391
3639.02	0.0392444
3648.66	0.0388463
3658.3	0.0388177
3667.94	0.0392735
3677.59	0.0389171
3687.23	0.0389466
3696.87	0.0386008
3706.51	0.0380725
3716.16	0.0390981
3725.8	0.0392116
3735.44	0.0379302
3745.08	0.0392388
3754.72	0.0390625
3764.37	0.0404059
3774.01	0.0382413
3783.65	0.0396158
3793.29	0.0378868
3802.94	0.0395275
3812.58	0.0389398
3822.22	0.0395515
3831.86	0.0404547
3841.51	0.0397328
3851.15	0.0386726
3860.79	0.0395508
3870.43	0.0384823
3880.07	0.0395518
3889.72	0.0384875
3899.36	0.0387629
3909	0.0391147
3918.64	0.0385849
3928.29	0.0391175
3937.93	0.0402032
3947.57	0.0407869
3957.21	0.0393359
3966.86	0.0399045
3976.5	0.0388737
3986.14	0.0405834
3995.78	0.0393901
