Measurement: Infrared, Infrared Data Processed
Mineral: Cavansite
Rruff sample: R050400
Ideal chemistry: CaV^4+^OSi_4_O_10_4H_2_O
Locality: Poona, India
Source: Eugene Schlepp
Description: Spray of blue crystals
Measured chemistry: (Ca_0.99_Mg_0.01_)_Σ=1_(V^4+^_1.00_O)Si_4.00_O_10_·4H_2_O
x	intensity
399.193	0.144789
408.835	0.138896
418.477	0.137181
428.12	0.167392
437.762	0.168195
447.404	0.140626
457.047	0.113801
466.689	0.125792
476.331	0.123604
485.974	0.112467
495.616	0.117165
505.258	0.108749
514.901	0.100538
524.543	0.104479
534.185	0.108157
543.828	0.0921147
553.47	0.0648139
563.112	0.0470411
572.755	0.0412057
582.397	0.040175
592.039	0.0429462
601.682	0.0475527
611.324	0.0416874
620.966	0.0339352
630.609	0.0287908
640.251	0.0261279
649.893	0.0249123
659.536	0.025146
669.178	0.028557
678.82	0.0330756
688.463	0.0359749
698.105	0.0486416
707.747	0.03669
717.39	0.0386208
727.032	0.0599126
736.674	0.0518102
746.317	0.024095
755.959	0.0227402
765.601	0.0272286
775.244	0.0366753
784.886	0.0527639
794.528	0.0530572
804.171	0.0348332
813.813	0.0320385
823.455	0.034137
833.098	0.0378669
842.74	0.0431659
852.382	0.0496355
862.025	0.0573095
871.667	0.0673761
881.309	0.0794983
890.952	0.0955087
900.594	0.116226
910.236	0.141404
919.879	0.171501
929.521	0.206772
939.163	0.246667
948.806	0.28733
958.448	0.319044
968.09	0.333526
977.733	0.348538
987.375	0.330953
997.017	0.287452
1006.66	0.231445
1016.3	0.183616
1025.94	0.147125
1035.59	0.117953
1045.23	0.0932092
1054.87	0.0724981
1064.51	0.0631329
1074.16	0.064521
1083.8	0.0453971
1093.44	0.0304899
1103.08	0.0267757
1112.72	0.0295042
1122.37	0.0263149
1132.01	0.0167611
1141.65	0.0115814
1151.3	0.00944983
1160.94	0.00872965
1170.58	0.00745181
1180.22	0.0064681
1189.86	0.00577459
1199.51	0.00519342
1209.15	0.00458246
1218.79	0.00361619
1228.43	0.00288774
1238.08	0.0020683
1247.72	0.0019764
1257.36	0.00146123
1267	0.00186484
1276.64	0.00120577
1286.29	0.00115641
1295.93	0.00141156
1305.57	0.00151149
1315.21	0.00165952
1324.86	0.00155371
1334.5	0.00164523
1344.14	0.00116803
1353.78	0.00149876
1363.43	0.00175669
1373.07	0.00137167
1382.71	0.00137579
1392.35	0.00140758
1401.99	0.00167655
1411.64	0.00158532
1421.28	0.00245852
1430.92	0.00236267
1440.57	0.00250227
1450.21	0.00242674
1459.85	0.00222707
1469.49	0.0026943
1479.13	0.0028279
1488.78	0.00289316
1498.42	0.00368271
1508.06	0.00435584
1517.7	0.00393269
1527.35	0.00389363
1536.99	0.00502967
1546.63	0.0053649
1556.27	0.0064682
1565.91	0.00685431
1575.56	0.00803613
1585.2	0.00994155
1594.84	0.0148582
1604.48	0.0308453
1614.13	0.0372181
1623.77	0.0465093
1633.41	0.0836198
1643.05	0.0703179
1652.7	0.0378729
1662.34	0.0123569
1671.98	0.00649497
1681.62	0.00418947
1691.27	0.00287653
1700.91	0.00239328
1710.55	0.00167137
1720.19	0.00210707
1729.84	0.00102598
1739.48	0.000439717
1749.12	0.000111862
1758.76	0.0012655
1768.4	0.00231433
1778.05	0.00125117
1787.69	0.00237218
1797.33	0.00178983
1806.97	0.00207084
1816.62	0.000615641
1826.26	0.000755662
1835.9	0.000409192
1845.54	0.00104005
1855.18	0.000840238
1864.83	0.00101868
1874.47	0.0015496
1884.11	0.000327252
1893.75	-0.00038286
1903.4	0.000230164
1913.04	-0.00103997
1922.68	-0.00047887
1932.32	-0.00196949
1941.97	-0.00351075
1951.61	-0.00387566
1961.25	-0.00593288
1970.89	-0.00481596
1980.54	-0.00291182
1990.18	-0.00589111
1999.82	-0.0045541
2009.46	-0.00710409
2019.11	-0.00878565
2028.75	-0.00556619
2038.39	-0.00549647
2048.03	-0.00371785
2057.67	-0.00297712
2067.32	0.000577012
2076.96	0.000399095
2086.6	-0.00180111
2096.24	-0.000932885
2105.89	-0.000305221
2115.53	0.00239381
2125.17	0.000266702
2134.81	-0.0042254
2144.45	-0.00548938
2154.1	-0.00997333
2163.74	-0.00317424
2173.38	0.00101614
2183.02	-0.0012839
2192.67	0.000451275
2202.31	-0.0013359
2211.95	0.00128932
2221.59	0.00088115
2231.24	0.000707767
2240.88	0.00142693
2250.52	-0.000105584
2260.16	0.000555979
2269.8	0.00259492
2279.45	0.00241597
2289.09	0.00341852
2298.73	0.00393656
2308.38	0.00298808
2318.02	0.00300095
2327.66	0.00256858
2337.3	0.00134718
2346.94	0.00120333
2356.59	0.00102301
2366.23	0.0016378
2375.87	0.00163549
2385.51	0.0023079
2395.16	0.00222409
2404.8	0.00184081
2414.44	0.00229668
2424.08	0.00194497
2433.72	0.00216027
2443.37	0.00214441
2453.01	0.00287935
2462.65	0.00247715
2472.29	0.00150948
2481.94	0.00258978
2491.58	0.00203113
2501.22	0.00208151
2510.86	0.00166017
2520.51	0.00105179
2530.15	0.00133008
2539.79	0.00359838
2549.43	0.000339549
2559.07	0.00195992
2568.72	0.00117346
2578.36	0.00197153
2588	0.00324641
2597.64	0.00146889
2607.29	0.00291466
2616.93	0.00309749
2626.57	0.00267623
2636.21	0.00207492
2645.86	0.00260212
2655.5	0.00219218
2665.14	0.00129804
2674.78	0.000723949
2684.43	0.00170759
2694.07	0.00152064
2703.71	0.00196407
2713.35	0.00248158
2722.99	0.0019826
2732.64	0.0021507
2742.28	0.00158057
2751.92	0.00236322
2761.56	0.00236838
2771.21	0.00242575
2780.85	0.00175519
2790.49	0.00180064
2800.13	0.000763333
2809.78	0.00177568
2819.42	0.00167121
2829.06	0.00217966
2838.7	0.00125258
2848.34	0.00197876
2857.99	0.00170846
2867.63	0.00132081
2877.27	-0.000276911
2886.91	-0.000618329
2896.56	-0.000155301
2906.2	-0.000849005
2915.84	0.00129598
2925.48	0.00071558
2935.13	-0.000107909
2944.77	0.00235075
2954.41	-0.000149526
2964.05	0.000241665
2973.7	-0.00148582
2983.34	-0.00142489
2992.98	-0.000904889
3002.62	0.000606598
3012.26	0.00242114
3021.91	0.00165718
3031.55	0.00143191
3041.19	0.00338553
3050.83	0.00298131
3060.48	0.00347701
3070.12	0.00186283
3079.76	0.000903734
3089.4	0.00452477
3099.05	0.00281038
3108.69	0.0046836
3118.33	0.00368019
3127.97	0.00357089
3137.61	0.00532681
3147.26	0.00327936
3156.9	0.00382221
3166.54	0.00690659
3176.18	0.00677554
3185.83	0.00539572
3195.47	0.00553685
3205.11	0.00543723
3214.75	0.00527448
3224.4	0.00449416
3234.04	0.00587213
3243.68	0.00543944
3253.32	0.0043274
3262.97	0.00323851
3272.61	0.00421068
3282.25	0.00428275
3291.89	0.00616021
3301.53	0.00748779
3311.18	0.00821997
3320.82	0.00973387
3330.46	0.0102757
3340.1	0.0118114
3349.75	0.0115154
3359.39	0.0118223
3369.03	0.0153514
3378.67	0.0130219
3388.32	0.0159733
3397.96	0.0175495
3407.6	0.014397
3417.24	0.0207703
3426.89	0.0179033
3436.53	0.0215726
3446.17	0.0206701
3455.81	0.0245762
3465.45	0.0234459
3475.1	0.0268119
3484.74	0.0335608
3494.38	0.039305
3504.02	0.0405224
3513.67	0.0352219
3523.31	0.036558
3532.95	0.0405349
3542.59	0.0540021
3552.24	0.0613532
3561.88	0.0412194
3571.52	0.0320746
3581.16	0.0324742
3590.8	0.0395244
3600.45	0.0424626
3610.09	0.0398274
3619.73	0.0245401
3629.37	0.0165523
3639.02	0.0155767
3648.66	0.0225075
3658.3	0.012565
3667.94	-0.00343036
3677.59	-0.00654132
3687.23	-0.00572686
3696.87	-0.00749469
3706.51	-0.00646777
3716.16	-0.0047584
3725.8	-0.00756832
3735.44	-0.00733066
3745.08	-0.00165464
3754.72	-0.0036086
3764.37	-0.00917705
3774.01	-0.00223172
3783.65	-0.00348816
3793.29	-0.00987175
3802.94	-0.00939913
3812.58	-0.0126462
3822.22	-0.00542991
3831.86	-0.00540564
3841.51	-0.00987132
3851.15	-0.00456913
3860.79	-0.0094284
3870.43	-0.00535587
3880.07	-0.00761143
3889.72	-0.00947098
3899.36	-0.0133911
3909	-0.00611428
3918.64	-0.00654409
3928.29	-0.00973418
3937.93	-0.0134138
3947.57	-0.00723933
3957.21	-0.0100877
3966.86	-0.00982426
3976.5	-0.00759989
3986.14	-0.010127
3995.78	-0.00803478
