Measurement: Infrared, Infrared Data Processed
Mineral: Celestine
Rruff sample: R040007
Ideal chemistry: SrS^6+^O_4_
Locality: Coahuila, Mexico
Source: University of Arizona Mineral Museum
Description: Blue tabular crystals
Measured chemistry: (Sr_0.95_Ba_0.04_Ca_0.01_)_Σ=1_S_1.00_O_4_; = Light bands. (Sr_0.99_Ba_0.01_)_Σ=1_S_1.00_O_4_; trace amounts of Ca = Dark bands
x	intensity
374.123	0.00294485
383.765	7.51046e-05
393.407	0.00577671
403.05	0.00618754
412.692	0.00695593
422.334	0.00645647
431.976	0.0069409
441.619	0.00749073
451.261	0.00906957
460.904	0.0107868
470.546	0.0146562
480.188	0.0156245
489.83	0.0157927
499.473	0.0178146
509.115	0.019732
518.758	0.0229627
528.4	0.0279287
538.042	0.0343945
547.684	0.0435701
557.327	0.0573931
566.969	0.0805936
576.611	0.127688
586.254	0.221702
595.896	0.360567
605.538	0.425277
615.181	0.245057
624.823	0.120667
634.466	0.160393
644.108	0.171253
653.75	0.0802108
663.393	0.0307812
673.035	0.0165778
682.677	0.0112044
692.319	0.00895688
701.962	0.00894904
711.604	0.00969499
721.246	0.00987193
730.889	0.010069
740.531	0.0108708
750.173	0.0114099
759.816	0.0123764
769.458	0.0135385
779.101	0.0144741
788.743	0.0156656
798.385	0.0172316
808.028	0.0190105
817.67	0.0205225
827.312	0.0221048
836.955	0.0230664
846.597	0.0246001
856.239	0.0260997
865.881	0.0283408
875.524	0.0312564
885.166	0.0344685
894.808	0.0387849
904.451	0.0441238
914.093	0.0508823
923.736	0.0591657
933.378	0.0688688
943.02	0.0810946
952.663	0.0976523
962.305	0.120576
971.947	0.15734
981.59	0.213908
991.232	0.355319
1000.87	0.160833
1010.52	0.225576
1020.16	0.302805
1029.8	0.376953
1039.44	0.455802
1049.09	0.537517
1058.73	0.608363
1068.37	0.640415
1078.01	0.619309
1087.65	0.565478
1097.3	0.505041
1106.94	0.448156
1116.58	0.402502
1126.22	0.356236
1135.87	0.314769
1145.51	0.274444
1155.15	0.234955
1164.79	0.201052
1174.44	0.186661
1184.08	0.19293
1193.72	0.202053
1203.36	0.193893
1213.01	0.166324
1222.65	0.132383
1232.29	0.0993258
1241.93	0.0829367
1251.58	0.0489639
1261.22	0.0225679
1270.86	0.0125587
1280.5	0.00873509
1290.14	0.00580492
1299.79	0.00404499
1309.43	0.00290681
1319.07	0.00197686
1328.71	0.00101311
1338.36	0.000386031
1348	0.00015402
1357.64	7.58121e-06
1367.28	0.000103627
1376.92	-5.33559e-06
1386.57	3.02686e-05
1396.21	-0.000155933
1405.85	-9.36716e-05
1415.49	0.000132229
1425.14	-1.82589e-05
1434.78	-0.000376983
1444.42	-0.000435598
1454.06	7.95758e-05
1463.71	-0.000128448
1473.35	-8.69934e-05
1482.99	-0.000513387
1492.63	-0.000413346
1502.28	-0.000328065
1511.92	-0.000161214
1521.56	0.000447203
1531.2	0.000653509
1540.85	0.00143619
1550.49	0.00138398
1560.13	0.0022511
1569.77	0.00190187
1579.41	0.00185533
1589.06	0.00182213
1598.7	0.00250099
1608.34	0.00255789
1617.98	0.00277377
1627.63	0.00244457
1637.27	0.00280546
1646.91	0.00325934
1656.55	0.0027461
1666.19	0.00241775
1675.84	0.00229755
1685.48	0.00258231
1695.12	0.00236565
1704.77	0.0019543
1714.41	0.00191776
1724.05	0.00190744
1733.69	0.00238447
1743.33	0.00147842
1752.98	0.00079423
1762.62	0.000745959
1772.26	0.00107632
1781.9	0.00112839
1791.55	0.00117592
1801.19	0.00125952
1810.83	0.00140527
1820.47	0.00121608
1830.12	0.00132449
1839.76	0.00138557
1849.4	0.00145317
1859.04	0.00128619
1868.68	0.00147825
1878.33	0.00144246
1887.97	0.00160091
1897.61	0.00194424
1907.25	0.00129235
1916.9	0.00203733
1926.54	0.00064987
1936.18	0.00153925
1945.82	0.000822258
1955.46	-2.15243e-05
1965.11	0.000268418
1974.75	-0.000757065
1984.39	-3.37298e-05
1994.04	0.000914846
2003.68	0.00013503
2013.32	-0.000888661
2022.96	-0.00103603
2032.6	-0.000137865
2042.25	0.000644226
2051.89	0.00120966
2061.53	0.00194529
2071.17	0.00416872
2080.82	0.00452937
2090.46	0.00418968
2100.1	0.00299979
2109.74	0.00306758
2119.39	0.00183544
2129.03	0.000104191
2138.67	0.000107239
2148.31	-0.00231706
2157.95	-0.00250382
2167.6	0.00100211
2177.24	0.00125949
2186.88	-2.19467e-05
2196.52	0.00163895
2206.17	0.000933745
2215.81	0.00149444
2225.45	0.00238028
2235.09	0.00280051
2244.74	0.00295598
2254.38	0.00242109
2264.02	0.0017502
2273.66	0.0029402
2283.3	0.00371281
2292.95	0.0035828
2302.59	0.00326347
2312.23	0.00381087
2321.87	0.00545808
2331.52	0.00455891
2341.16	0.0044135
2350.8	0.00388873
2360.44	0.00470498
2370.09	0.0040887
2379.73	0.00288901
2389.37	0.00315157
2399.01	0.00259525
2408.66	0.0031018
2418.3	0.00234489
2427.94	0.00307168
2437.58	0.00252656
2447.22	0.00275693
2456.87	0.00354744
2466.51	0.00383741
2476.15	0.00433981
2485.79	0.00367932
2495.44	0.00466963
2505.08	0.00502468
2514.72	0.00541602
2524.36	0.00587659
2534.01	0.00623558
2543.65	0.00607067
2553.29	0.00633982
2562.93	0.00622066
2572.57	0.00668296
2582.22	0.00636096
2591.86	0.0065473
2601.5	0.00641364
2611.14	0.00636654
2620.79	0.00684906
2630.43	0.00667168
2640.07	0.0064735
2649.71	0.00660781
2659.36	0.00623573
2669	0.00574281
2678.64	0.00603397
2688.28	0.00612306
2697.93	0.00604478
2707.57	0.00611179
2717.21	0.00594149
2726.85	0.00624423
2736.49	0.00662681
2746.14	0.006758
2755.78	0.00672494
2765.42	0.00672659
2775.06	0.00675148
2784.71	0.00700883
2794.35	0.00741866
2803.99	0.00723401
2813.63	0.00744539
2823.28	0.00704017
2832.92	0.00774909
2842.56	0.008301
2852.2	0.00891456
2861.84	0.00843666
2871.49	0.00820683
2881.13	0.00870703
2890.77	0.00933765
2900.41	0.00943015
2910.06	0.0105489
2919.7	0.0108775
2929.34	0.0105431
2938.98	0.00920826
2948.62	0.0090996
2958.27	0.00998055
2967.91	0.00915173
2977.55	0.00880441
2987.2	0.00790397
2996.84	0.00845266
3006.48	0.00815081
3016.12	0.00879592
3025.76	0.00807009
3035.41	0.00843149
3045.05	0.00831671
3054.69	0.00840097
3064.33	0.00851545
3073.98	0.00903148
3083.62	0.00929115
3093.26	0.00918551
3102.9	0.00921309
3112.55	0.00995494
3122.19	0.0100415
3131.83	0.0101649
3141.47	0.0106153
3151.11	0.00973929
3160.76	0.0096018
3170.4	0.0103154
3180.04	0.0102921
3189.68	0.0106735
3199.33	0.0107423
3208.97	0.0106625
3218.61	0.0108982
3228.25	0.0112455
3237.9	0.0111053
3247.54	0.011597
3257.18	0.0119605
3266.82	0.0110657
3276.47	0.0116923
3286.11	0.0116991
3295.75	0.0119988
3305.39	0.01189
3315.03	0.0124062
3324.68	0.0121598
3334.32	0.0118178
3343.96	0.0120945
3353.6	0.0130752
3363.25	0.0131995
3372.89	0.0131706
3382.53	0.012374
3392.17	0.0131509
3401.82	0.0129423
3411.46	0.0132532
3421.1	0.0127121
3430.74	0.012819
3440.39	0.0125232
3450.03	0.0136865
3459.67	0.0125732
3469.31	0.0131919
3478.95	0.0134587
3488.6	0.0125911
3498.24	0.012765
3507.88	0.0121661
3517.52	0.012881
3527.17	0.0128101
3536.81	0.0125051
3546.45	0.0130898
3556.09	0.0128406
3565.74	0.0125446
3575.38	0.0117051
3585.02	0.0116781
3594.66	0.0115372
3604.3	0.0104928
3613.95	0.0114495
3623.59	0.0119653
3633.23	0.0115935
3642.87	0.0110197
3652.52	0.0102322
3662.16	0.0101657
3671.8	0.0113688
3681.44	0.0117844
3691.09	0.0114544
3700.73	0.0104582
3710.37	0.0117009
3720.01	0.0100472
3729.66	0.0113463
3739.3	0.0110822
3748.94	0.0122972
3758.58	0.0111205
3768.22	0.0105162
3777.87	0.00975073
3787.51	0.0105214
3797.15	0.0109301
3806.79	0.0110469
3816.44	0.0115791
3826.08	0.0109589
3835.72	0.0124619
3845.36	0.0112227
3855.01	0.0118325
3864.65	0.01135
3874.29	0.0108943
3883.93	0.0116022
3893.57	0.0109426
3903.22	0.0114527
3912.86	0.0113011
3922.5	0.0112045
3932.14	0.0120374
3941.79	0.0105999
3951.43	0.0116085
3961.07	0.0111532
3970.71	0.0123636
3980.36	0.0107662
3990	0.0120367
3999.64	0.011394
