Measurement: Infrared, Infrared Data Processed
Mineral: Cerussite
Rruff sample: R060017
Ideal chemistry: Pb^2+^CO_3_
Locality: Gonessa, Sardinia, Italy
Source: American Museum of Natural History
Description: White reticulated composite
Measured chemistry: Pb_1.00_CO_3_ C not measured but estimated by difference and stoichiometry
x	intensity
372.194	0
381.836	0
391.479	0
401.121	0.0119872
410.763	0.0163307
420.406	0.0181899
430.048	0.0122633
439.69	0.013307
449.333	0.016051
458.975	0.0188627
468.617	0.0187777
478.26	0.017893
487.902	0.0172567
497.544	0.0189966
507.187	0.0199705
516.829	0.0219651
526.471	0.0229442
536.114	0.0250246
545.756	0.0255902
555.398	0.0283312
565.041	0.0297764
574.683	0.0319296
584.325	0.0352315
593.968	0.0367476
603.61	0.0399419
613.252	0.0439693
622.895	0.051644
632.537	0.0579579
642.179	0.0677052
651.822	0.0857203
661.464	0.13519
671.106	0.33735
680.749	0.191482
690.391	0.0214247
700.033	0.0280725
709.676	0.0283732
719.318	0.0346104
728.96	0.0412369
738.603	0.0447409
748.245	0.044645
757.887	0.0478227
767.53	0.0530482
777.172	0.0580291
786.814	0.0633427
796.457	0.0695187
806.099	0.0796198
815.741	0.105529
825.384	0.1778
835.026	0.467921
844.668	0.126983
854.311	0.0669618
863.953	0.0632327
873.595	0.0652783
883.238	0.0663164
892.88	0.0682302
902.522	0.0711749
912.165	0.0759186
921.807	0.0794041
931.449	0.0845898
941.092	0.0900133
950.734	0.0953203
960.376	0.100381
970.019	0.10466
979.661	0.111631
989.303	0.121378
998.946	0.122121
1008.59	0.121939
1018.23	0.127188
1027.87	0.135842
1037.52	0.149412
1047.16	0.231477
1056.8	0.128789
1066.44	0.137164
1076.08	0.147609
1085.73	0.159046
1095.37	0.177752
1105.01	0.189601
1114.65	0.180153
1124.3	0.182578
1133.94	0.193388
1143.58	0.202518
1153.22	0.214373
1162.87	0.224309
1172.51	0.238337
1182.15	0.252601
1191.79	0.270337
1201.43	0.28924
1211.08	0.307782
1220.72	0.329426
1230.36	0.354069
1240	0.383988
1249.65	0.416679
1259.29	0.454752
1268.93	0.497211
1278.57	0.540557
1288.22	0.580315
1297.86	0.618702
1307.5	0.64975
1317.14	0.682262
1326.79	0.728771
1336.43	0.782885
1346.07	0.847081
1355.71	0.917634
1365.35	0.972184
1375	0.975703
1384.64	0.884794
1394.28	0.75108
1403.92	0.625379
1413.57	0.551693
1423.21	0.533628
1432.85	0.499682
1442.49	0.423752
1452.13	0.351921
1461.78	0.292638
1471.42	0.238968
1481.06	0.186276
1490.7	0.136638
1500.35	0.0999601
1509.99	0.0750454
1519.63	0.0606522
1529.27	0.0503317
1538.92	0.0429686
1548.56	0.0366828
1558.2	0.0317187
1567.84	0.0291481
1577.49	0.0252521
1587.13	0.0225272
1596.77	0.0205771
1606.41	0.0195151
1616.06	0.0181728
1625.7	0.0168264
1635.34	0.0153391
1644.98	0.0150181
1654.62	0.0149041
1664.27	0.014486
1673.91	0.0142949
1683.55	0.0150581
1693.19	0.0164803
1702.84	0.0180146
1712.48	0.0195075
1722.12	0.0367019
1731.76	0.0601885
1741.4	0.0446651
1751.05	0.0197326
1760.69	0.018439
1770.33	0.020532
1779.97	0.0200642
1789.62	0.0221399
1799.26	0.0232253
1808.9	0.0230735
1818.54	0.0234764
1828.19	0.0230137
1837.83	0.0253449
1847.47	0.0265711
1857.11	0.027067
1866.76	0.028723
1876.4	0.0283142
1886.04	0.0295752
1895.68	0.0301303
1905.33	0.0330827
1914.97	0.0321585
1924.61	0.0330976
1934.25	0.0321809
1943.89	0.0324288
1953.54	0.0339822
1963.18	0.0330448
1972.82	0.0355459
1982.46	0.0374913
1992.11	0.0357353
2001.75	0.0375632
2011.39	0.0365957
2021.03	0.0348127
2030.67	0.04105
2040.32	0.0416842
2049.96	0.0445308
2059.6	0.0445052
2069.24	0.0440346
2078.89	0.0496346
2088.53	0.0447249
2098.17	0.0489864
2107.81	0.0473011
2117.46	0.0494162
2127.1	0.0486118
2136.74	0.0453674
2146.38	0.0495566
2156.03	0.0490594
2165.67	0.0518074
2175.31	0.0505775
2184.95	0.0543314
2194.59	0.0537264
2204.24	0.0545593
2213.88	0.0559293
2223.52	0.052667
2233.16	0.0594614
2242.81	0.0592831
2252.45	0.0600503
2262.09	0.0597205
2271.73	0.0611131
2281.38	0.063929
2291.02	0.0656222
2300.66	0.0644996
2310.3	0.0654073
2319.95	0.0686366
2329.59	0.068339
2339.23	0.0690822
2348.87	0.0713319
2358.51	0.0734852
2368.16	0.0744187
2377.8	0.0762323
2387.44	0.0792962
2397.08	0.088406
2406.73	0.0966628
2416.37	0.0915511
2426.01	0.0820683
2435.65	0.0763877
2445.3	0.0764191
2454.94	0.0777039
2464.58	0.0744646
2474.22	0.076312
2483.86	0.0755302
2493.51	0.0755428
2503.15	0.0766845
2512.79	0.0737996
2522.43	0.0767033
2532.08	0.076474
2541.72	0.0772704
2551.36	0.0768856
2561	0.0762501
2570.65	0.0757512
2580.29	0.075687
2589.93	0.0768608
2599.57	0.0781534
2609.22	0.0810354
2618.86	0.0794376
2628.5	0.0821566
2638.14	0.0828654
2647.78	0.0846003
2657.43	0.0855269
2667.07	0.0848115
2676.71	0.0862369
2686.35	0.0869197
2696	0.0888424
2705.64	0.0892649
2715.28	0.0926728
2724.92	0.0943442
2734.57	0.0970151
2744.21	0.0976651
2753.85	0.0959131
2763.49	0.0965428
2773.14	0.097979
2782.78	0.0982301
2792.42	0.0987912
2802.06	0.0984917
2811.7	0.100056
2821.35	0.0980453
2830.99	0.0988412
2840.63	0.0997885
2850.27	0.0985265
2859.92	0.0984571
2869.56	0.098588
2879.2	0.100348
2888.84	0.0991396
2898.49	0.100701
2908.13	0.103289
2917.77	0.103429
2927.41	0.106179
2937.05	0.10624
2946.7	0.106682
2956.34	0.110042
2965.98	0.109585
2975.62	0.106448
2985.27	0.107381
2994.91	0.109363
3004.55	0.108249
3014.19	0.109675
3023.84	0.111931
3033.48	0.112717
3043.12	0.113129
3052.76	0.115214
3062.41	0.114934
3072.05	0.116655
3081.69	0.118144
3091.33	0.116486
3100.97	0.118208
3110.62	0.121286
3120.26	0.121098
3129.9	0.121895
3139.54	0.122658
3149.19	0.121266
3158.83	0.122405
3168.47	0.125389
3178.11	0.128119
3187.76	0.127547
3197.4	0.128063
3207.04	0.131049
3216.68	0.12744
3226.32	0.128994
3235.97	0.128352
3245.61	0.128864
3255.25	0.129299
3264.89	0.132023
3274.54	0.131515
3284.18	0.133866
3293.82	0.132143
3303.46	0.134547
3313.11	0.135617
3322.75	0.137153
3332.39	0.135544
3342.03	0.137341
3351.68	0.136299
3361.32	0.137137
3370.96	0.134577
3380.6	0.139415
3390.24	0.140245
3399.89	0.137328
3409.53	0.141718
3419.17	0.14265
3428.81	0.140079
3438.46	0.137607
3448.1	0.138647
3457.74	0.135053
3467.38	0.142272
3477.03	0.14402
3486.67	0.143376
3496.31	0.139333
3505.95	0.144513
3515.59	0.14607
3525.24	0.142878
3534.88	0.144492
3544.52	0.144829
3554.16	0.146487
3563.81	0.146867
3573.45	0.147769
3583.09	0.147856
3592.73	0.146782
3602.38	0.149753
3612.02	0.147999
3621.66	0.14628
3631.3	0.150722
3640.95	0.150662
3650.59	0.151361
3660.23	0.156003
3669.87	0.154303
3679.51	0.14522
3689.16	0.153853
3698.8	0.151765
3708.44	0.151517
3718.08	0.152344
3727.73	0.152855
3737.37	0.155174
3747.01	0.154624
3756.65	0.157364
3766.3	0.1585
3775.94	0.156559
3785.58	0.159067
3795.22	0.158959
3804.86	0.162764
3814.51	0.158186
3824.15	0.157383
3833.79	0.157954
3843.43	0.160263
3853.08	0.161117
3862.72	0.161218
3872.36	0.161825
3882	0.16166
3891.65	0.159331
3901.29	0.159549
3910.93	0.167595
3920.57	0.16281
3930.22	0.162732
3939.86	0.16586
3949.5	0.163482
3959.14	0.171643
3968.78	0.163681
3978.43	0.163767
3988.07	0.162988
3997.71	0.168315
