Measurement: Infrared, Infrared Data Processed
Mineral: Cerussite
Rruff sample: R050174
Ideal chemistry: Pb^2+^CO_3_
Locality: Tsumeb mine, Tsumeb, Otavi District, Oshikoto, Namibia
Source: Marcus Origlieri
Description: Colorless single crystal
Measured chemistry: Pb_1.00_CO_3_ ; C not measured but estimated by difference and stoichiometry
x	intensity
50.1401	0.0170484
52.0686	0.0200053
53.9971	0.0198949
55.9255	0.0249909
57.854	0.0299431
59.7825	0.0364275
61.7109	0.0287218
63.6394	0.0301477
65.5679	0.0304511
67.4963	0.0278983
69.4248	0.0291492
71.3533	0.0330499
73.2817	0.0338785
75.2102	0.0322707
77.1387	0.0329548
79.0671	0.0349685
80.9956	0.0358463
82.9241	0.0360797
84.8525	0.0375149
86.781	0.0380245
88.7095	0.0396229
90.6379	0.0406965
92.5664	0.0399884
94.4948	0.0388555
96.4233	0.0395082
98.3518	0.0415272
100.28	0.0413645
102.209	0.0415994
104.137	0.0424189
106.066	0.0434511
107.994	0.0445352
109.923	0.0450528
111.851	0.0454857
113.779	0.0450479
115.708	0.0444205
117.636	0.0451389
119.565	0.0460916
121.493	0.0469665
123.422	0.047369
125.35	0.0482781
127.279	0.0483978
129.207	0.0482342
131.136	0.0497019
133.064	0.0505345
134.993	0.050076
136.921	0.0498652
138.85	0.0503959
140.778	0.0507354
142.707	0.0511672
144.635	0.0508627
146.563	0.0501727
148.492	0.0506703
150.42	0.0514937
152.349	0.0513668
154.277	0.0506096
156.206	0.050517
158.134	0.0514316
160.063	0.051248
161.991	0.0511954
163.92	0.0510442
165.848	0.050113
167.777	0.0493505
169.705	0.0492148
171.633	0.0484182
173.562	0.0479007
175.49	0.0480561
177.419	0.047543
179.347	0.0468906
181.276	0.0467643
183.204	0.0465245
185.133	0.0459048
187.061	0.0457404
188.99	0.045739
190.918	0.0455476
192.847	0.0456738
194.775	0.0453594
196.704	0.0447816
198.632	0.0444738
200.56	0.0442069
202.489	0.0437771
204.417	0.0430663
206.346	0.0427794
208.274	0.0427967
210.203	0.041853
212.131	0.0410214
214.06	0.0403611
215.988	0.0399355
217.917	0.0394298
219.845	0.0392722
221.774	0.039101
223.702	0.0385518
225.631	0.038037
227.559	0.0380455
229.488	0.0371106
231.416	0.0362663
233.344	0.0358467
235.273	0.0353344
237.201	0.0346527
239.13	0.0343457
241.058	0.0336356
242.987	0.032669
244.915	0.0319747
246.844	0.0315337
248.772	0.0304884
250.701	0.0292943
252.629	0.0291449
254.558	0.0287394
256.486	0.0273278
258.414	0.0264168
260.343	0.0259396
262.271	0.0255894
264.2	0.0250317
266.128	0.0246332
268.057	0.0244655
269.985	0.0245556
271.914	0.0241755
273.842	0.0239636
275.771	0.0242852
277.699	0.0246759
279.628	0.0244377
281.556	0.0244762
283.485	0.0242378
285.413	0.0240479
287.341	0.0242837
289.27	0.0247663
291.198	0.0245384
293.127	0.0240798
295.055	0.0240038
296.984	0.0240031
298.912	0.0241322
300.841	0.024671
302.769	0.0251076
304.698	0.0246899
306.626	0.0242748
308.555	0.0242316
310.483	0.0239566
312.411	0.0237162
314.34	0.0235513
316.269	0.0236361
318.197	0.0236587
320.125	0.0236065
322.054	0.0235139
323.982	0.0235684
325.911	0.0235343
327.839	0.0236983
329.768	0.0234431
331.696	0.0232253
333.625	0.0232835
335.553	0.0235365
337.482	0.023438
339.41	0.0234309
341.339	0.0235611
343.267	0.0236767
345.195	0.0235673
347.124	0.023901
349.052	0.0243478
350.981	0.0246075
352.909	0.0245731
354.838	0.0246474
356.766	0.0248684
358.695	0.024959
360.623	0.0248078
362.552	0.0250885
364.48	0.0250347
366.409	0.0249637
368.337	0.0252107
370.265	0.0255406
372.194	0.0255193
374.122	0.0257711
376.051	0.025754
377.979	0.025566
379.908	0.0254722
381.836	0.0255281
383.765	0.0254382
385.693	0.025675
387.622	0.0257616
389.55	0.0259617
391.479	0.026063
393.407	0.0262753
395.336	0.0265481
397.264	0.0270693
399.192	0.02747
401.121	0.0275828
403.049	0.0274352
404.978	0.0275952
406.906	0.0276683
408.835	0.027747
410.763	0.0279466
412.692	0.0283176
414.62	0.0284354
416.549	0.0288422
418.477	0.0294339
420.406	0.0297405
422.334	0.0298553
424.262	0.0299332
426.191	0.0301544
428.12	0.0307145
430.048	0.0309729
431.976	0.0312325
433.905	0.0315444
435.833	0.0320786
437.762	0.0324924
439.69	0.032688
441.619	0.0327949
443.547	0.0330991
445.476	0.0334201
447.404	0.0338169
449.333	0.034044
451.261	0.0346024
453.19	0.0353398
455.118	0.0357926
457.046	0.0363098
458.975	0.0369985
460.903	0.0372563
462.832	0.0376207
464.76	0.0382729
466.689	0.0388276
468.617	0.039123
470.546	0.0394211
472.474	0.0397095
474.403	0.0397761
476.331	0.0397471
478.26	0.0400865
480.188	0.0401992
482.116	0.0401015
484.045	0.0401817
485.974	0.0403092
487.902	0.0402846
489.83	0.0405754
491.759	0.040738
493.687	0.0408757
495.616	0.0412197
497.544	0.0415218
499.473	0.041524
501.401	0.041918
503.33	0.0424934
505.258	0.042961
507.187	0.0431978
509.115	0.0433092
511.043	0.0435182
512.972	0.0438021
514.9	0.0441077
516.829	0.0442922
518.757	0.0447592
520.686	0.0451704
522.614	0.0452778
524.543	0.0456327
526.471	0.0458246
528.4	0.0458819
530.328	0.0459096
532.257	0.0461652
534.185	0.046321
536.114	0.0462317
538.042	0.0462043
539.971	0.0465444
541.899	0.0467278
543.827	0.0469492
545.756	0.0470151
547.684	0.0472261
549.613	0.0474081
551.541	0.0474491
553.47	0.0475125
555.398	0.0476368
557.327	0.0479238
559.255	0.0486164
561.184	0.0491517
563.112	0.0494299
565.041	0.0499304
566.969	0.0503332
568.898	0.050204
570.826	0.0503684
572.755	0.050759
574.683	0.051391
576.611	0.0521669
578.54	0.0522405
580.468	0.052184
582.397	0.0525646
584.325	0.0529127
586.254	0.0533475
588.182	0.0534913
590.111	0.0535629
592.039	0.0537562
593.968	0.053712
595.896	0.0534262
597.824	0.0535837
599.753	0.0536681
601.682	0.0532438
603.61	0.0527444
605.538	0.0532044
607.467	0.0534719
609.395	0.0534166
611.324	0.0538822
613.252	0.0550503
615.181	0.0557662
617.109	0.0561229
619.038	0.0567798
620.966	0.0576958
622.894	0.0582052
624.823	0.0590708
626.751	0.0611925
628.68	0.0636645
630.608	0.0655209
632.537	0.0667683
634.465	0.0674711
636.394	0.0682106
638.322	0.0686805
640.251	0.0693473
642.179	0.0705505
644.108	0.0715381
646.036	0.072562
647.965	0.0736929
649.893	0.0745274
651.822	0.0757047
653.75	0.0771016
655.678	0.0786307
657.607	0.0805285
659.535	0.0825683
661.464	0.085219
663.392	0.0887095
665.321	0.0924938
667.249	0.0974499
669.178	0.103902
671.106	0.11228
673.035	0.124191
674.963	0.139
676.892	0.144066
678.82	0.129325
680.749	0.101299
682.677	0.0721585
684.606	0.0558314
686.534	0.0512126
688.462	0.0507289
690.391	0.0523216
692.319	0.0551383
694.248	0.0583138
696.176	0.060709
698.105	0.0636779
700.033	0.064974
