Measurement: Infrared, Infrared Data Processed
Mineral: Cerussite
Rruff sample: R050298
Ideal chemistry: Pb^2+^CO_3_
Locality: Bunker Hill mine, Shoshone County, Idaho, USA
Source: Eugene Schlepp
Description: Group of colorless tabular crystals
Measured chemistry: Pb_1.00_CO_3_
x	intensity
399.193	0.015493
408.835	0.0139275
418.477	0.0100722
428.12	0.01181
437.762	0.014935
447.404	0.014701
457.047	0.0162183
466.689	0.0173275
476.331	0.0173866
485.974	0.0182297
495.616	0.0187342
505.258	0.0203506
514.901	0.0215615
524.543	0.0223146
534.185	0.0249016
543.828	0.027919
553.47	0.0306194
563.112	0.0326044
572.755	0.0344672
582.397	0.0398489
592.039	0.0440781
601.682	0.0487267
611.324	0.0502056
620.966	0.0554685
630.609	0.0623536
640.251	0.0682869
649.893	0.0839817
659.536	0.119885
669.178	0.249361
678.82	0.282066
688.463	0.0219266
698.105	0.0269603
707.747	0.0270222
717.39	0.033584
727.032	0.04136
736.674	0.0452281
746.317	0.046073
755.959	0.0496724
765.601	0.0551746
775.244	0.0619361
784.886	0.0679032
794.528	0.0740009
804.171	0.0850361
813.813	0.106321
823.455	0.182903
833.098	0.358201
842.74	0.179492
852.382	0.0695676
862.025	0.0644023
871.667	0.0682656
881.309	0.0692598
890.952	0.0723345
900.594	0.0753709
910.236	0.0787032
919.879	0.0843673
929.521	0.0895792
939.163	0.0947489
948.806	0.0995591
958.448	0.104305
968.09	0.107519
977.733	0.112917
987.375	0.123832
997.017	0.127635
1006.66	0.127318
1016.3	0.132685
1025.94	0.142634
1035.59	0.158767
1045.23	0.205636
1054.87	0.154167
1064.51	0.147392
1074.16	0.159561
1083.8	0.169692
1093.44	0.185008
1103.08	0.197909
1112.72	0.191979
1122.37	0.18911
1132.01	0.198697
1141.65	0.207357
1151.3	0.217255
1160.94	0.228071
1170.58	0.23968
1180.22	0.252081
1189.86	0.266047
1199.51	0.282036
1209.15	0.299341
1218.79	0.319113
1228.43	0.340513
1238.08	0.365341
1247.72	0.39412
1257.36	0.425849
1267	0.460678
1276.64	0.497686
1286.29	0.531654
1295.93	0.564258
1305.57	0.590231
1315.21	0.614074
1324.86	0.646961
1334.5	0.686349
1344.14	0.729144
1353.78	0.776014
1363.43	0.815438
1373.07	0.823863
1382.71	0.773272
1392.35	0.673555
1401.99	0.569995
1411.64	0.502237
1421.28	0.480982
1430.92	0.459134
1440.57	0.397501
1450.21	0.331702
1459.85	0.277006
1469.49	0.228602
1479.13	0.181766
1488.78	0.135167
1498.42	0.0980404
1508.06	0.0734837
1517.7	0.059156
1527.35	0.0496316
1536.99	0.0420686
1546.63	0.0363484
1556.27	0.0313059
1565.91	0.0276594
1575.56	0.0245433
1585.2	0.0217337
1594.84	0.0198914
1604.48	0.0180659
1614.13	0.017084
1623.77	0.0159534
1633.41	0.0147102
1643.05	0.0148393
1652.7	0.0144851
1662.34	0.0133257
1671.98	0.0138219
1681.62	0.0129591
1691.27	0.014164
1700.91	0.0150983
1710.55	0.0160733
1720.19	0.0259316
1729.84	0.0640892
1739.48	0.0433657
1749.12	0.0174665
1758.76	0.0163952
1768.4	0.0174842
1778.05	0.0166437
1787.69	0.0183106
1797.33	0.01933
1806.97	0.019663
1816.62	0.0210694
1826.26	0.0220394
1835.9	0.0230463
1845.54	0.023118
1855.18	0.0248254
1864.83	0.0250526
1874.47	0.0259505
1884.11	0.0277829
1893.75	0.0266897
1903.4	0.0276142
1913.04	0.0294899
1922.68	0.0286501
1932.32	0.0270976
1941.97	0.0310514
1951.61	0.0307885
1961.25	0.0318889
1970.89	0.0306346
1980.54	0.0349446
1990.18	0.0372133
1999.82	0.0339204
2009.46	0.0339402
2019.11	0.0364438
2028.75	0.0357887
2038.39	0.0406138
2048.03	0.0420067
2057.67	0.0387804
2067.32	0.0425178
2076.96	0.0422852
2086.6	0.0412625
2096.24	0.0412701
2105.89	0.0399958
2115.53	0.0451606
2125.17	0.0441042
2134.81	0.0446742
2144.45	0.0466217
2154.1	0.0424474
2163.74	0.04677
2173.38	0.0475669
2183.02	0.0488574
2192.67	0.0490514
2202.31	0.0472271
2211.95	0.0482845
2221.59	0.0509749
2231.24	0.0510533
2240.88	0.0550201
2250.52	0.0535795
2260.16	0.0547527
2269.8	0.0567885
2279.45	0.0575755
2289.09	0.0597558
2298.73	0.0608458
2308.38	0.0619068
2318.02	0.0624807
2327.66	0.06333
2337.3	0.0665531
2346.94	0.0662191
2356.59	0.0681146
2366.23	0.0688966
2375.87	0.0696175
2385.51	0.0743848
2395.16	0.0825033
2404.8	0.091001
2414.44	0.0884908
2424.08	0.0782915
2433.72	0.0724545
2443.37	0.0695439
2453.01	0.0705963
2462.65	0.0688049
2472.29	0.0690445
2481.94	0.0673117
2491.58	0.0694861
2501.22	0.0685323
2510.86	0.0670713
2520.51	0.0686266
2530.15	0.067252
2539.79	0.068058
2549.43	0.0670062
2559.07	0.0686447
2568.72	0.0680069
2578.36	0.0694167
2588	0.0692526
2597.64	0.0707249
2607.29	0.0722139
2616.93	0.0723591
2626.57	0.0736476
2636.21	0.0745006
2645.86	0.0761295
2655.5	0.0772008
2665.14	0.0774892
2674.78	0.0785459
2684.43	0.0793485
2694.07	0.0795566
2703.71	0.0815551
2713.35	0.0835854
2722.99	0.0865515
2732.64	0.0882449
2742.28	0.090455
2751.92	0.0892831
2761.56	0.0894808
2771.21	0.0900485
2780.85	0.0885876
2790.49	0.0903249
2800.13	0.0908844
2809.78	0.0909171
2819.42	0.0915238
2829.06	0.0907482
2838.7	0.0909984
2848.34	0.0884131
2857.99	0.0878813
2867.63	0.0872533
2877.27	0.0887676
2886.91	0.089388
2896.56	0.0908477
2906.2	0.0928563
2915.84	0.0943861
2925.48	0.0906758
2935.13	0.0932952
2944.77	0.0931188
2954.41	0.0949946
2964.05	0.0963834
2973.7	0.0980379
2983.34	0.0979845
2992.98	0.100378
3002.62	0.0996186
3012.26	0.101552
3021.91	0.103046
3031.55	0.105518
3041.19	0.104928
3050.83	0.104518
3060.48	0.106833
3070.12	0.107154
3079.76	0.10987
3089.4	0.108246
3099.05	0.112043
3108.69	0.110572
3118.33	0.112364
3127.97	0.114639
3137.61	0.113251
3147.26	0.11534
3156.9	0.114932
3166.54	0.115825
3176.18	0.115387
3185.83	0.11847
3195.47	0.118542
3205.11	0.119345
3214.75	0.120748
3224.4	0.120936
3234.04	0.118156
3243.68	0.123339
3253.32	0.121078
3262.97	0.123927
3272.61	0.123263
3282.25	0.126795
3291.89	0.125727
3301.53	0.126682
3311.18	0.128098
3320.82	0.129075
3330.46	0.128105
3340.1	0.12966
3349.75	0.128808
3359.39	0.132585
3369.03	0.131837
3378.67	0.129799
3388.32	0.133939
3397.96	0.133902
3407.6	0.135669
3417.24	0.133349
3426.89	0.133815
3436.53	0.133772
3446.17	0.134198
3455.81	0.13611
3465.45	0.132909
3475.1	0.136131
3484.74	0.133329
3494.38	0.136098
3504.02	0.135285
3513.67	0.140682
3523.31	0.140664
3532.95	0.143032
3542.59	0.136971
3552.24	0.142466
3561.88	0.139352
3571.52	0.137471
3581.16	0.140413
3590.8	0.13994
3600.45	0.141898
3610.09	0.143277
3619.73	0.144209
3629.37	0.143418
3639.02	0.141699
3648.66	0.143588
3658.3	0.145115
3667.94	0.147839
3677.59	0.145593
3687.23	0.146891
3696.87	0.149465
3706.51	0.144987
3716.16	0.145611
3725.8	0.14947
3735.44	0.148119
3745.08	0.150443
3754.72	0.153442
3764.37	0.152081
3774.01	0.152151
3783.65	0.154525
3793.29	0.155006
3802.94	0.15389
3812.58	0.154815
3822.22	0.153745
3831.86	0.15661
3841.51	0.154939
3851.15	0.15923
3860.79	0.155085
3870.43	0.156519
3880.07	0.158157
3889.72	0.161824
3899.36	0.158107
3909	0.16212
3918.64	0.162835
3928.29	0.158103
3937.93	0.161313
3947.57	0.160553
3957.21	0.167775
3966.86	0.164982
3976.5	0.163638
3986.14	0.163429
3995.78	0.16676
