Measurement: Infrared, Infrared Data Processed
Mineral: Cerussite
Rruff sample: R050011
Ideal chemistry: Pb^2+^CO_3_
Locality: Daoping Lead and Zinc mine, Gongcheng, Guangxi, China
Source: Eugene Schlepp
Description: Colorless hexagonal bipyramidal crystals
Measured chemistry: Pb_1.00_CO_3_ ; CO_2_ not measured but estimated by difference and stoichiometry
x	intensity
399.193	0
408.835	0.0115902
418.477	0.0125427
428.12	0.0145404
437.762	0.0138368
447.404	0.0138848
457.047	0.0168865
466.689	0.0171259
476.331	0.018492
485.974	0.0200723
495.616	0.0222336
505.258	0.023404
514.901	0.0257181
524.543	0.0281205
534.185	0.0303934
543.828	0.0322092
553.47	0.0346648
563.112	0.0376515
572.755	0.0406642
582.397	0.0434968
592.039	0.0459786
601.682	0.0491387
611.324	0.053669
620.966	0.0594225
630.609	0.065987
640.251	0.0744945
649.893	0.0887136
659.536	0.117587
669.178	0.207787
678.82	0.245609
688.463	0.0210683
698.105	0.0297967
707.747	0.0328318
717.39	0.0412122
727.032	0.0481505
736.674	0.0524824
746.317	0.0542176
755.959	0.0583567
765.601	0.0638144
775.244	0.07023
784.886	0.0757028
794.528	0.0813038
804.171	0.090512
813.813	0.110348
823.455	0.167496
833.098	0.288947
842.74	0.162486
852.382	0.0757923
862.025	0.0734764
871.667	0.0769872
881.309	0.078797
890.952	0.0808015
900.594	0.0839611
910.236	0.0873035
919.879	0.0916752
929.521	0.0962
939.163	0.100254
948.806	0.104598
958.448	0.109302
968.09	0.112672
977.733	0.117029
987.375	0.125218
997.017	0.127434
1006.66	0.127256
1016.3	0.131208
1025.94	0.13757
1035.59	0.146994
1045.23	0.180316
1054.87	0.147157
1064.51	0.138166
1074.16	0.147432
1083.8	0.156252
1093.44	0.168307
1103.08	0.177427
1112.72	0.17404
1122.37	0.174651
1132.01	0.18282
1141.65	0.190208
1151.3	0.197266
1160.94	0.203995
1170.58	0.212017
1180.22	0.221481
1189.86	0.232001
1199.51	0.243433
1209.15	0.254936
1218.79	0.267466
1228.43	0.281185
1238.08	0.297104
1247.72	0.315305
1257.36	0.335037
1267	0.356488
1276.64	0.380505
1286.29	0.402799
1295.93	0.424998
1305.57	0.442811
1315.21	0.459832
1324.86	0.482981
1334.5	0.512124
1344.14	0.544429
1353.78	0.583621
1363.43	0.621533
1373.07	0.643031
1382.71	0.621212
1392.35	0.55228
1401.99	0.469896
1411.64	0.412086
1421.28	0.393372
1430.92	0.376671
1440.57	0.331194
1450.21	0.279999
1459.85	0.236549
1469.49	0.196691
1479.13	0.158172
1488.78	0.118023
1498.42	0.0846608
1508.06	0.0620324
1517.7	0.0491497
1527.35	0.0412617
1536.99	0.03526
1546.63	0.0305646
1556.27	0.0280761
1565.91	0.0261762
1575.56	0.0232263
1585.2	0.0216141
1594.84	0.0201407
1604.48	0.0190515
1614.13	0.0188413
1623.77	0.0177795
1633.41	0.0172285
1643.05	0.0168756
1652.7	0.0164026
1662.34	0.0177011
1671.98	0.0186082
1681.62	0.0192931
1691.27	0.0210003
1700.91	0.0214165
1710.55	0.0248507
1720.19	0.0327389
1729.84	0.0621879
1739.48	0.0451124
1749.12	0.0251852
1758.76	0.0242648
1768.4	0.0254809
1778.05	0.0266384
1787.69	0.0282639
1797.33	0.0286307
1806.97	0.0300078
1816.62	0.0308862
1826.26	0.0318248
1835.9	0.0332666
1845.54	0.0337041
1855.18	0.0355107
1864.83	0.0361221
1874.47	0.0368244
1884.11	0.0366933
1893.75	0.0384683
1903.4	0.0395271
1913.04	0.0406845
1922.68	0.0411956
1932.32	0.0396062
1941.97	0.0427491
1951.61	0.0421352
1961.25	0.0423904
1970.89	0.0412845
1980.54	0.0491007
1990.18	0.0459318
1999.82	0.047245
2009.46	0.0471305
2019.11	0.0474096
2028.75	0.0491854
2038.39	0.0512187
2048.03	0.0557525
2057.67	0.0553054
2067.32	0.0543035
2076.96	0.0570273
2086.6	0.0577806
2096.24	0.0569505
2105.89	0.0590818
2115.53	0.060363
2125.17	0.0584212
2134.81	0.0584818
2144.45	0.0582134
2154.1	0.0564235
2163.74	0.0626971
2173.38	0.0630777
2183.02	0.0612187
2192.67	0.0644073
2202.31	0.0636436
2211.95	0.0644339
2221.59	0.068501
2231.24	0.0688769
2240.88	0.0708533
2250.52	0.0705072
2260.16	0.0710246
2269.8	0.0738334
2279.45	0.0747803
2289.09	0.0766632
2298.73	0.0772727
2308.38	0.0787125
2318.02	0.0797371
2327.66	0.0796731
2337.3	0.081344
2346.94	0.0826644
2356.59	0.0830901
2366.23	0.0838646
2375.87	0.0871246
2385.51	0.0904534
2395.16	0.0963129
2404.8	0.102917
2414.44	0.100922
2424.08	0.0921768
2433.72	0.0876486
2443.37	0.0872895
2453.01	0.087294
2462.65	0.0870609
2472.29	0.0871328
2481.94	0.0874566
2491.58	0.0874601
2501.22	0.0875684
2510.86	0.0876593
2520.51	0.0885977
2530.15	0.0889649
2539.79	0.0870938
2549.43	0.088321
2559.07	0.0892458
2568.72	0.0908497
2578.36	0.0899371
2588	0.0918534
2597.64	0.0920654
2607.29	0.0933256
2616.93	0.0943103
2626.57	0.0957611
2636.21	0.0966152
2645.86	0.0975317
2655.5	0.0991769
2665.14	0.098889
2674.78	0.0991553
2684.43	0.10046
2694.07	0.101667
2703.71	0.103432
2713.35	0.104494
2722.99	0.106601
2732.64	0.107936
2742.28	0.108403
2751.92	0.108185
2761.56	0.108303
2771.21	0.109587
2780.85	0.109102
2790.49	0.109373
2800.13	0.110131
2809.78	0.110057
2819.42	0.110532
2829.06	0.111071
2838.7	0.110045
2848.34	0.109732
2857.99	0.11002
2867.63	0.110436
2877.27	0.111204
2886.91	0.111719
2896.56	0.112658
2906.2	0.113614
2915.84	0.112864
2925.48	0.115596
2935.13	0.114809
2944.77	0.116058
2954.41	0.115246
2964.05	0.116793
2973.7	0.118189
2983.34	0.119015
2992.98	0.121146
3002.62	0.12078
3012.26	0.121838
3021.91	0.123998
3031.55	0.123697
3041.19	0.123505
3050.83	0.125409
3060.48	0.126664
3070.12	0.127947
3079.76	0.127028
3089.4	0.128736
3099.05	0.129895
3108.69	0.129026
3118.33	0.129691
3127.97	0.130184
3137.61	0.132203
3147.26	0.133122
3156.9	0.133704
3166.54	0.13374
3176.18	0.13478
3185.83	0.134809
3195.47	0.136705
3205.11	0.137575
3214.75	0.13902
3224.4	0.138237
3234.04	0.139883
3243.68	0.139727
3253.32	0.141665
3262.97	0.141484
3272.61	0.142618
3282.25	0.142169
3291.89	0.143834
3301.53	0.143174
3311.18	0.144061
3320.82	0.145336
3330.46	0.144981
3340.1	0.14672
3349.75	0.146982
3359.39	0.147712
3369.03	0.149967
3378.67	0.148286
3388.32	0.149098
3397.96	0.15025
3407.6	0.150865
3417.24	0.150066
3426.89	0.149561
3436.53	0.151867
3446.17	0.151111
3455.81	0.149943
3465.45	0.151459
3475.1	0.151201
3484.74	0.151658
3494.38	0.15234
3504.02	0.153119
3513.67	0.152691
3523.31	0.152617
3532.95	0.152768
3542.59	0.154424
3552.24	0.15351
3561.88	0.15537
3571.52	0.15589
3581.16	0.153507
3590.8	0.15504
3600.45	0.155512
3610.09	0.159547
3619.73	0.15671
3629.37	0.159599
3639.02	0.156043
3648.66	0.158779
3658.3	0.159334
3667.94	0.158127
3677.59	0.159921
3687.23	0.161147
3696.87	0.158841
3706.51	0.164992
3716.16	0.161761
3725.8	0.162316
3735.44	0.164154
3745.08	0.166368
3754.72	0.165398
3764.37	0.16403
3774.01	0.164512
3783.65	0.16545
3793.29	0.166186
3802.94	0.169113
3812.58	0.16861
3822.22	0.169718
3831.86	0.166843
3841.51	0.166459
3851.15	0.168637
3860.79	0.166656
3870.43	0.170236
3880.07	0.170435
3889.72	0.170938
3899.36	0.170537
3909	0.170085
3918.64	0.17329
3928.29	0.170028
3937.93	0.17026
3947.57	0.171596
3957.21	0.174047
3966.86	0.174532
3976.5	0.172615
3986.14	0.177259
3995.78	0.174771
