Measurement: Infrared, Infrared Data Processed
Mineral: Chalcanthite
Rruff sample: R050293
Ideal chemistry: Cu^2+^S^6+^O_4_5H_2_O
Locality: 79 mine, 4th level, Hayden, Gila County, Arizona, USA
Source: George Godas, John Callahan
Description: Blue fibrous crust
Measured chemistry: Cu_1.00_S_1.00_O_4_Â·5H_2_O
x	intensity
399.193	0.192278
408.835	0.213651
418.477	0.226956
428.12	0.241311
437.762	0.234671
447.404	0.224743
457.047	0.224388
466.689	0.233443
476.331	0.213882
485.974	0.192722
495.616	0.192123
505.258	0.204761
514.901	0.221445
524.543	0.237826
534.185	0.243752
543.828	0.232373
553.47	0.223183
563.112	0.21812
572.755	0.216427
582.397	0.220201
592.039	0.232276
601.682	0.255343
611.324	0.261974
620.966	0.238774
630.609	0.187776
640.251	0.161057
649.893	0.148208
659.536	0.141343
669.178	0.137657
678.82	0.133556
688.463	0.12874
698.105	0.120342
707.747	0.108521
717.39	0.0973645
727.032	0.0908471
736.674	0.0875966
746.317	0.086204
755.959	0.0844758
765.601	0.082954
775.244	0.0825841
784.886	0.0843326
794.528	0.0861051
804.171	0.0875291
813.813	0.0879385
823.455	0.0917615
833.098	0.0965894
842.74	0.103926
852.382	0.114549
862.025	0.122005
871.667	0.126714
881.309	0.124777
890.952	0.118361
900.594	0.113656
910.236	0.115935
919.879	0.106061
929.521	0.099978
939.163	0.100306
948.806	0.100025
958.448	0.107959
968.09	0.125338
977.733	0.156361
987.375	0.168695
997.017	0.205553
1006.66	0.247342
1016.3	0.267491
1025.94	0.306264
1035.59	0.33688
1045.23	0.357215
1054.87	0.391929
1064.51	0.422035
1074.16	0.423184
1083.8	0.402666
1093.44	0.375637
1103.08	0.326932
1112.72	0.248739
1122.37	0.176501
1132.01	0.122102
1141.65	0.0820808
1151.3	0.0563692
1160.94	0.0421781
1170.58	0.0347084
1180.22	0.0296335
1189.86	0.0265183
1199.51	0.0243502
1209.15	0.0228175
1218.79	0.0220513
1228.43	0.0212206
1238.08	0.0203702
1247.72	0.0195126
1257.36	0.0191823
1267	0.0193768
1276.64	0.0191847
1286.29	0.0190206
1295.93	0.0195175
1305.57	0.0195254
1315.21	0.0195929
1324.86	0.0198957
1334.5	0.0205991
1344.14	0.0206359
1353.78	0.0213575
1363.43	0.0216699
1373.07	0.0212975
1382.71	0.0219771
1392.35	0.0223441
1401.99	0.0226186
1411.64	0.0236314
1421.28	0.0237256
1430.92	0.0247012
1440.57	0.0254465
1450.21	0.0260653
1459.85	0.0262211
1469.49	0.026541
1479.13	0.026445
1488.78	0.0265298
1498.42	0.027095
1508.06	0.0276943
1517.7	0.0284907
1527.35	0.0296852
1536.99	0.0308957
1546.63	0.0324603
1556.27	0.0334336
1565.91	0.0349929
1575.56	0.0366101
1585.2	0.0379512
1594.84	0.0400713
1604.48	0.0418958
1614.13	0.0456821
1623.77	0.0497934
1633.41	0.0542749
1643.05	0.0585541
1652.7	0.0594274
1662.34	0.0616738
1671.98	0.066469
1681.62	0.0526122
1691.27	0.0399643
1700.91	0.033037
1710.55	0.0290235
1720.19	0.0268547
1729.84	0.0238338
1739.48	0.0210304
1749.12	0.0194578
1758.76	0.0202472
1768.4	0.0193377
1778.05	0.0179365
1787.69	0.0181198
1797.33	0.0173484
1806.97	0.0166787
1816.62	0.0159057
1826.26	0.0158053
1835.9	0.0161087
1845.54	0.0162266
1855.18	0.0151671
1864.83	0.0155935
1874.47	0.015554
1884.11	0.0158067
1893.75	0.014516
1903.4	0.0149549
1913.04	0.0163448
1922.68	0.0139866
1932.32	0.0124415
1941.97	0.0143537
1951.61	0.0120193
1961.25	0.0129548
1970.89	0.0120569
1980.54	0.0119457
1990.18	0.0136975
1999.82	0.0113516
2009.46	0.0106536
2019.11	0.0130562
2028.75	0.0133024
2038.39	0.0131022
2048.03	0.0177874
2057.67	0.0126632
2067.32	0.0178204
2076.96	0.0173727
2086.6	0.0193491
2096.24	0.018892
2105.89	0.0175333
2115.53	0.0173085
2125.17	0.0172043
2134.81	0.0151881
2144.45	0.0138
2154.1	0.0126387
2163.74	0.0120194
2173.38	0.0145472
2183.02	0.013451
2192.67	0.0148661
2202.31	0.0161755
2211.95	0.0169025
2221.59	0.0192681
2231.24	0.0206879
2240.88	0.024362
2250.52	0.0238406
2260.16	0.0242155
2269.8	0.0273827
2279.45	0.0283892
2289.09	0.0298767
2298.73	0.0305134
2308.38	0.0318467
2318.02	0.0323835
2327.66	0.032262
2337.3	0.0346054
2346.94	0.0334601
2356.59	0.0360621
2366.23	0.0369985
2375.87	0.0355636
2385.51	0.0355958
2395.16	0.0363569
2404.8	0.0382045
2414.44	0.037529
2424.08	0.0382232
2433.72	0.0386149
2443.37	0.0398493
2453.01	0.0406264
2462.65	0.0405664
2472.29	0.0397864
2481.94	0.0381523
2491.58	0.0410153
2501.22	0.0404356
2510.86	0.0386452
2520.51	0.0396307
2530.15	0.0373742
2539.79	0.0365888
2549.43	0.0364416
2559.07	0.0377265
2568.72	0.0361544
2578.36	0.0347367
2588	0.0343555
2597.64	0.0357267
2607.29	0.0358927
2616.93	0.0358512
2626.57	0.0368794
2636.21	0.0376706
2645.86	0.0378098
2655.5	0.0378294
2665.14	0.0389206
2674.78	0.0401045
2684.43	0.0410664
2694.07	0.0404781
2703.71	0.0440962
2713.35	0.043868
2722.99	0.0476481
2732.64	0.0492354
2742.28	0.0508954
2751.92	0.0513475
2761.56	0.054703
2771.21	0.0574063
2780.85	0.0581643
2790.49	0.0620025
2800.13	0.0652057
2809.78	0.0675637
2819.42	0.0722027
2829.06	0.075906
2838.7	0.0796586
2848.34	0.0861881
2857.99	0.0889592
2867.63	0.0945072
2877.27	0.0986113
2886.91	0.10581
2896.56	0.111892
2906.2	0.119974
2915.84	0.127941
2925.48	0.133476
2935.13	0.139526
2944.77	0.146458
2954.41	0.157837
2964.05	0.166461
2973.7	0.177136
2983.34	0.184856
2992.98	0.201261
3002.62	0.215603
3012.26	0.232164
3021.91	0.248732
3031.55	0.266141
3041.19	0.283803
3050.83	0.299458
3060.48	0.317855
3070.12	0.337699
3079.76	0.354437
3089.4	0.365679
3099.05	0.382097
3108.69	0.393187
3118.33	0.402261
3127.97	0.40394
3137.61	0.405688
3147.26	0.407732
3156.9	0.40437
3166.54	0.409576
3176.18	0.404066
3185.83	0.400125
3195.47	0.390036
3205.11	0.377924
3214.75	0.364322
3224.4	0.349729
3234.04	0.336076
3243.68	0.328357
3253.32	0.318622
3262.97	0.309727
3272.61	0.306843
3282.25	0.299834
3291.89	0.295661
3301.53	0.292176
3311.18	0.28962
3320.82	0.285314
3330.46	0.276443
3340.1	0.269624
3349.75	0.257599
3359.39	0.250501
3369.03	0.234542
3378.67	0.223023
3388.32	0.214242
3397.96	0.202708
3407.6	0.191954
3417.24	0.178828
3426.89	0.169691
3436.53	0.161494
3446.17	0.155957
3455.81	0.153531
3465.45	0.151349
3475.1	0.152878
3484.74	0.140726
3494.38	0.126029
3504.02	0.102584
3513.67	0.0878839
3523.31	0.0751621
3532.95	0.0672422
3542.59	0.0532323
3552.24	0.0475004
3561.88	0.0390072
3571.52	0.035516
3581.16	0.0331182
3590.8	0.0315409
3600.45	0.0264958
3610.09	0.0269487
3619.73	0.031334
3629.37	0.023702
3639.02	0.0186773
3648.66	0.0181473
3658.3	0.0186068
3667.94	0.0173421
3677.59	0.013277
3687.23	0.0217995
3696.87	0.0301317
3706.51	0.0156348
3716.16	0.00722115
3725.8	0.00628819
3735.44	0.00811036
3745.08	0.00417887
3754.72	0.00692449
3764.37	0.00483927
3774.01	0.00787793
3783.65	0.0104034
3793.29	0.0112511
3802.94	0.00840153
3812.58	0.00983369
3822.22	0.0105459
3831.86	0.0064788
3841.51	0.0102219
3851.15	0.00771331
3860.79	0.00685612
3870.43	0.00833695
3880.07	0.00912134
3889.72	0.00930898
3899.36	0.00439169
3909	0.00763765
3918.64	0.00996203
3928.29	0.00398677
3937.93	0.00944377
3947.57	0.0107301
3957.21	0.0160726
3966.86	0.00681617
3976.5	0.00997526
3986.14	0.00501932
3995.78	0.00922563
