Measurement: Infrared, Infrared Data Processed
Mineral: Chalcopyrite
Rruff sample: R050208
Ideal chemistry: Cu^1+^Fe^3+^S^2-^_2_
Locality: Kidd Creek mine, Timmins, Ontario, Canada
Source: Lloyd Twaites
Description: Brass yellow metallic fine-grained massive
Measured chemistry: Cu_1.00_Fe_1.00_S_2.00_
x	intensity
374.123	0.246143
383.765	0.25212
393.407	0.266063
403.05	0.273585
412.692	0.291225
422.334	0.299717
431.976	0.305676
441.619	0.313368
451.261	0.319754
460.904	0.325182
470.546	0.333049
480.188	0.337645
489.83	0.340407
499.473	0.346854
509.115	0.350056
518.758	0.35622
528.4	0.358404
538.042	0.361136
547.684	0.364835
557.327	0.365253
566.969	0.369202
576.611	0.371503
586.254	0.37727
595.896	0.383001
605.538	0.383743
615.181	0.387497
624.823	0.390425
634.466	0.392125
644.108	0.394416
653.75	0.397081
663.393	0.399337
673.035	0.402396
682.677	0.405619
692.319	0.409027
701.962	0.411084
711.604	0.415707
721.246	0.417928
730.889	0.422802
740.531	0.427391
750.173	0.425445
759.816	0.428686
769.458	0.432244
779.101	0.435749
788.743	0.439821
798.385	0.443367
808.028	0.446287
817.67	0.449655
827.312	0.454151
836.955	0.456758
846.597	0.462464
856.239	0.467901
865.881	0.473019
875.524	0.472864
885.166	0.470258
894.808	0.474212
904.451	0.478773
914.093	0.483057
923.736	0.485798
933.378	0.489017
943.02	0.492575
952.663	0.496441
962.305	0.500574
971.947	0.504432
981.59	0.506768
991.232	0.508337
1000.87	0.509587
1010.52	0.51036
1020.16	0.511776
1029.8	0.51247
1039.44	0.511435
1049.09	0.51079
1058.73	0.510715
1068.37	0.510521
1078.01	0.511799
1087.65	0.511739
1097.3	0.511483
1106.94	0.511642
1116.58	0.511258
1126.22	0.512102
1135.87	0.513675
1145.51	0.515939
1155.15	0.515131
1164.79	0.51477
1174.44	0.514031
1184.08	0.51467
1193.72	0.515374
1203.36	0.516313
1213.01	0.514895
1222.65	0.515162
1232.29	0.515532
1241.93	0.517362
1251.58	0.519572
1261.22	0.522335
1270.86	0.525869
1280.5	0.529318
1290.14	0.532865
1299.79	0.53591
1309.43	0.538497
1319.07	0.541155
1328.71	0.543559
1338.36	0.545869
1348	0.548671
1357.64	0.551304
1367.28	0.553779
1376.92	0.555951
1386.57	0.559105
1396.21	0.561494
1405.85	0.564171
1415.49	0.565328
1425.14	0.565698
1434.78	0.565214
1444.42	0.564009
1454.06	0.563064
1463.71	0.561732
1473.35	0.561415
1482.99	0.560369
1492.63	0.560556
1502.28	0.561086
1511.92	0.56133
1521.56	0.562619
1531.2	0.563368
1540.85	0.564265
1550.49	0.565141
1560.13	0.566091
1569.77	0.566228
1579.41	0.567963
1589.06	0.569185
1598.7	0.571331
1608.34	0.572542
1617.98	0.575064
1627.63	0.575656
1637.27	0.576169
1646.91	0.577055
1656.55	0.577906
1666.19	0.57919
1675.84	0.58036
1685.48	0.58144
1695.12	0.583561
1704.77	0.584133
1714.41	0.586038
1724.05	0.588192
1733.69	0.590174
1743.33	0.589351
1752.98	0.590083
1762.62	0.59184
1772.26	0.593148
1781.9	0.594404
1791.55	0.59459
1801.19	0.596551
1810.83	0.597349
1820.47	0.598306
1830.12	0.598886
1839.76	0.599319
1849.4	0.599771
1859.04	0.601229
1868.68	0.602488
1878.33	0.603584
1887.97	0.604367
1897.61	0.605378
1907.25	0.607843
1916.9	0.609875
1926.54	0.609466
1936.18	0.610933
1945.82	0.612033
1955.46	0.61171
1965.11	0.61464
1974.75	0.61622
1984.39	0.619055
1994.04	0.620552
2003.68	0.615603
2013.32	0.62754
2022.96	0.620092
2032.6	0.629569
2042.25	0.62417
2051.89	0.627999
2061.53	0.627094
2071.17	0.629812
2080.82	0.631424
2090.46	0.631237
2100.1	0.634424
2109.74	0.634453
2119.39	0.634506
2129.03	0.638605
2138.67	0.63863
2148.31	0.641887
2157.95	0.643846
2167.6	0.643627
2177.24	0.638338
2186.88	0.644856
2196.52	0.646856
2206.17	0.644285
2215.81	0.645966
2225.45	0.648183
2235.09	0.648502
2244.74	0.648989
2254.38	0.648696
2264.02	0.649543
2273.66	0.655177
2283.3	0.653291
2292.95	0.653831
2302.59	0.655505
2312.23	0.654348
2321.87	0.655508
2331.52	0.655002
2341.16	0.655824
2350.8	0.657448
2360.44	0.655654
2370.09	0.659013
2379.73	0.660518
2389.37	0.66217
2399.01	0.661357
2408.66	0.662746
2418.3	0.664266
2427.94	0.663763
2437.58	0.665505
2447.22	0.665743
2456.87	0.66775
2466.51	0.669264
2476.15	0.669481
2485.79	0.670627
2495.44	0.671368
2505.08	0.672633
2514.72	0.674492
2524.36	0.673909
2534.01	0.674984
2543.65	0.676326
2553.29	0.675486
2562.93	0.678924
2572.57	0.679302
2582.22	0.679561
2591.86	0.680762
2601.5	0.681961
2611.14	0.684342
2620.79	0.685167
2630.43	0.687474
2640.07	0.689128
2649.71	0.690397
2659.36	0.691671
2669	0.691917
2678.64	0.692786
2688.28	0.693161
2697.93	0.693427
2707.57	0.695121
2717.21	0.695967
2726.85	0.696846
2736.49	0.697231
2746.14	0.698488
2755.78	0.699201
2765.42	0.700004
2775.06	0.699457
2784.71	0.701359
2794.35	0.702048
2803.99	0.702689
2813.63	0.704198
2823.28	0.705143
2832.92	0.706053
2842.56	0.706434
2852.2	0.707109
2861.84	0.708338
2871.49	0.708711
2881.13	0.709371
2890.77	0.710874
2900.41	0.71259
2910.06	0.712073
2919.7	0.713384
2929.34	0.711695
2938.98	0.711506
2948.62	0.712994
2958.27	0.712288
2967.91	0.711949
2977.55	0.711989
2987.2	0.712551
2996.84	0.714009
3006.48	0.713738
3016.12	0.714808
3025.76	0.715476
3035.41	0.716854
3045.05	0.71724
3054.69	0.718084
3064.33	0.718835
3073.98	0.719265
3083.62	0.719702
3093.26	0.720171
3102.9	0.720664
3112.55	0.721204
3122.19	0.723164
3131.83	0.723701
3141.47	0.723931
3151.11	0.725163
3160.76	0.726519
3170.4	0.72655
3180.04	0.727448
3189.68	0.726886
3199.33	0.727912
3208.97	0.72814
3218.61	0.729414
3228.25	0.730032
3237.9	0.731113
3247.54	0.732995
3257.18	0.732841
3266.82	0.734334
3276.47	0.73485
3286.11	0.735194
3295.75	0.736171
3305.39	0.736386
3315.03	0.738082
3324.68	0.738345
3334.32	0.739213
3343.96	0.739499
3353.6	0.740297
3363.25	0.741074
3372.89	0.740031
3382.53	0.739811
3392.17	0.739522
3401.82	0.739405
3411.46	0.741769
3421.1	0.74072
3430.74	0.741273
3440.39	0.740208
3450.03	0.742719
3459.67	0.741312
3469.31	0.742563
3478.95	0.741098
3488.6	0.743938
3498.24	0.741522
3507.88	0.741214
3517.52	0.742856
3527.17	0.743189
3536.81	0.743469
3546.45	0.743532
3556.09	0.742337
3565.74	0.742386
3575.38	0.743616
3585.02	0.743396
3594.66	0.743825
3604.3	0.745544
3613.95	0.747432
3623.59	0.747072
3633.23	0.745611
3642.87	0.74764
3652.52	0.750087
3662.16	0.750539
3671.8	0.750359
3681.44	0.753227
3691.09	0.752421
3700.73	0.753483
3710.37	0.75748
3720.01	0.753869
3729.66	0.756897
3739.3	0.756119
3748.94	0.758439
3758.58	0.759889
3768.22	0.760853
3777.87	0.763681
3787.51	0.761931
3797.15	0.76061
3806.79	0.763184
3816.44	0.764858
3826.08	0.766063
3835.72	0.764878
3845.36	0.765997
3855.01	0.767938
3864.65	0.76821
3874.29	0.767623
3883.93	0.769955
3893.57	0.770387
3903.22	0.769903
3912.86	0.770954
3922.5	0.771228
3932.14	0.775605
3941.79	0.773155
3951.43	0.774623
3961.07	0.775503
3970.71	0.775849
3980.36	0.774996
3990	0.776654
3999.64	0.777717
