Measurement: Infrared, Infrared Data Processed
Mineral: Chiolite
Rruff sample: R050412
Ideal chemistry: Na_5_Al_3_F_14_
Locality: Ivigtut cryolite deposit, Arsuk Fjord, Greenland
Source: G.R. Rossman
Description: Colorless fragment
Measured chemistry: (Na_4.96_K_0.04_)_Î£=5_Al_3.00_F_14.00_ ; trace amounts of Si and Ca
x	intensity
399.193	0.1271
408.835	0.131055
418.477	0.0745719
428.12	0.0428007
437.762	0.0233008
447.404	0.0180065
457.047	0.0176344
466.689	0.0196857
476.331	0.0193398
485.974	0.0236194
495.616	0.0250902
505.258	0.0303994
514.901	0.0390328
524.543	0.0519919
534.185	0.0745892
543.828	0.117572
553.47	0.195366
563.112	0.295582
572.755	0.314695
582.397	0.236374
592.039	0.215394
601.682	0.297598
611.324	0.369457
620.966	0.353059
630.609	0.319283
640.251	0.255551
649.893	0.186844
659.536	0.139396
669.178	0.109183
678.82	0.0844773
688.463	0.0663103
698.105	0.0502896
707.747	0.0371706
717.39	0.0269777
727.032	0.020576
736.674	0.0177401
746.317	0.0141207
755.959	0.0121112
765.601	0.0109611
775.244	0.0100127
784.886	0.00863612
794.528	0.00872694
804.171	0.00902909
813.813	0.00816613
823.455	0.00666579
833.098	0.00628261
842.74	0.00541951
852.382	0.00524755
862.025	0.00488091
871.667	0.00478054
881.309	0.0042101
890.952	0.00402731
900.594	0.00414694
910.236	0.00402184
919.879	0.00424871
929.521	0.00370492
939.163	0.00367907
948.806	0.0042676
958.448	0.00380576
968.09	0.00443346
977.733	0.00489906
987.375	0.00546089
997.017	0.00599203
1006.66	0.00714189
1016.3	0.00836989
1025.94	0.00898918
1035.59	0.00911729
1045.23	0.00948468
1054.87	0.00932784
1064.51	0.00878962
1074.16	0.00916591
1083.8	0.00932173
1093.44	0.00972551
1103.08	0.00940995
1112.72	0.0096022
1122.37	0.00849086
1132.01	0.00740036
1141.65	0.00708767
1151.3	0.00652433
1160.94	0.00885068
1170.58	0.00827251
1180.22	0.00467284
1189.86	0.00351428
1199.51	0.00290346
1209.15	0.00215742
1218.79	0.00160578
1228.43	0.00134681
1238.08	0.0006904
1247.72	0.000231771
1257.36	0.000973745
1267	0.00133805
1276.64	-0.000532518
1286.29	-0.000778719
1295.93	-0.000873396
1305.57	-0.00092939
1315.21	-0.000809722
1324.86	-0.000756039
1334.5	-0.00101068
1344.14	-0.00122815
1353.78	-0.00150538
1363.43	-0.00106258
1373.07	-0.00131977
1382.71	-0.00144066
1392.35	-0.00124411
1401.99	-0.00143837
1411.64	-0.00144723
1421.28	-0.00142902
1430.92	-0.00132097
1440.57	-0.0013574
1450.21	-0.00151578
1459.85	-0.00121845
1469.49	-0.00148333
1479.13	-0.00110383
1488.78	-0.00118612
1498.42	-0.00119945
1508.06	-0.00140649
1517.7	-0.00178611
1527.35	-0.00202695
1536.99	-0.0015822
1546.63	-0.00152085
1556.27	-0.00163034
1565.91	-0.00127414
1575.56	-0.00107817
1585.2	-0.00104355
1594.84	-0.00114344
1604.48	-0.00130367
1614.13	-0.00107028
1623.77	-0.000740143
1633.41	-0.000657272
1643.05	-0.000977798
1652.7	-0.000422134
1662.34	-0.00127612
1671.98	-0.00103418
1681.62	-0.00116015
1691.27	-0.00145466
1700.91	-0.00149023
1710.55	-0.00137191
1720.19	-0.00264186
1729.84	-0.00216984
1739.48	-0.00323439
1749.12	-0.00339375
1758.76	-0.00251368
1768.4	-0.00239114
1778.05	-0.00227984
1787.69	-0.00215848
1797.33	-0.00299304
1806.97	-0.00268952
1816.62	-0.00220493
1826.26	-0.00282622
1835.9	-0.00233649
1845.54	-0.00183077
1855.18	-0.00298001
1864.83	-0.00185927
1874.47	-0.00223043
1884.11	-0.00248605
1893.75	-0.00238778
1903.4	-0.00187589
1913.04	-0.0024212
1922.68	-0.00292408
1932.32	-0.00313402
1941.97	-0.00395886
1951.61	-0.00199063
1961.25	-0.00278631
1970.89	-0.0012623
1980.54	-0.00066326
1990.18	-0.00200582
1999.82	-0.00522011
2009.46	-0.00363331
2019.11	-0.000808528
2028.75	-0.00342006
2038.39	-0.00341135
2048.03	-0.000879093
2057.67	-0.00284535
2067.32	-0.00157696
2076.96	-0.00244111
2086.6	-0.00231646
2096.24	-0.0015507
2105.89	-0.00215975
2115.53	-0.00377161
2125.17	-0.00417891
2134.81	-0.00221426
2144.45	-0.00395876
2154.1	-0.00621624
2163.74	-0.00198138
2173.38	-0.00438762
2183.02	-0.00246528
2192.67	-0.00278177
2202.31	-0.0016151
2211.95	-0.00299278
2221.59	-0.00394048
2231.24	-0.00373144
2240.88	-0.000748443
2250.52	-0.00418901
2260.16	-0.000242533
2269.8	-0.00351488
2279.45	-0.00117858
2289.09	-0.0013334
2298.73	-0.00110905
2308.38	-0.00145088
2318.02	0.000710315
2327.66	0.00115815
2337.3	0.00194696
2346.94	-0.000643525
2356.59	0.00407381
2366.23	0.00231934
2375.87	-0.0015069
2385.51	-0.00294281
2395.16	-0.00352164
2404.8	-0.00346458
2414.44	-0.00218509
2424.08	-0.00263768
2433.72	-0.00341109
2443.37	-0.0041312
2453.01	-0.00220831
2462.65	-0.00441306
2472.29	-0.00502832
2481.94	-0.00445172
2491.58	-0.0030357
2501.22	-0.00423339
2510.86	-0.00479057
2520.51	-0.00225632
2530.15	-0.00475466
2539.79	-0.0037322
2549.43	-0.00200467
2559.07	-0.00426746
2568.72	-0.00299549
2578.36	-0.00379543
2588	-0.00370023
2597.64	-0.00423437
2607.29	-0.00399117
2616.93	-0.00313966
2626.57	-0.00283796
2636.21	-0.00340728
2645.86	-0.00318914
2655.5	-0.00407444
2665.14	-0.00485481
2674.78	-0.00454013
2684.43	-0.00421933
2694.07	-0.00352833
2703.71	-0.00411981
2713.35	-0.00437753
2722.99	-0.00597721
2732.64	-0.00485655
2742.28	-0.00427386
2751.92	-0.00333475
2761.56	-0.00328471
2771.21	-0.00475666
2780.85	-0.00395408
2790.49	-0.00423768
2800.13	-0.00383663
2809.78	-0.00382467
2819.42	-0.00554528
2829.06	-0.00479342
2838.7	-0.00491601
2848.34	-0.0056949
2857.99	-0.0037648
2867.63	-0.0069131
2877.27	-0.00395559
2886.91	-0.0041668
2896.56	-0.00455329
2906.2	-0.00506266
2915.84	-0.0054798
2925.48	-0.00453248
2935.13	-0.00451361
2944.77	-0.00551164
2954.41	-0.00402943
2964.05	-0.00185341
2973.7	-0.00338411
2983.34	-0.00441941
2992.98	-0.00406449
3002.62	-0.00291881
3012.26	-0.00384535
3021.91	-0.00482021
3031.55	-0.00372497
3041.19	-0.00326101
3050.83	-0.0058152
3060.48	-0.00298534
3070.12	-0.00431739
3079.76	-0.00482119
3089.4	-0.00542884
3099.05	-0.00504922
3108.69	-0.00470556
3118.33	-0.00455499
3127.97	-0.00474628
3137.61	-0.00477214
3147.26	-0.00476865
3156.9	-0.00632681
3166.54	-0.00434334
3176.18	-0.00395167
3185.83	-0.00499038
3195.47	-0.00246796
3205.11	-0.00535028
3214.75	-0.0043121
3224.4	-0.00361306
3234.04	-0.00390814
3243.68	-0.00265603
3253.32	-0.00031947
3262.97	-0.00118931
3272.61	-0.00211962
3282.25	-0.00524989
3291.89	-0.00455866
3301.53	-0.00268102
3311.18	-0.00599175
3320.82	-0.00359423
3330.46	-0.00480698
3340.1	-0.00173318
3349.75	-0.00288821
3359.39	-0.00230608
3369.03	-0.0026751
3378.67	-0.000852804
3388.32	-0.00232437
3397.96	-0.00428799
3407.6	-0.00456165
3417.24	-0.00474568
3426.89	-0.00185193
3436.53	-0.00445745
3446.17	-0.00310514
3455.81	-0.0045948
3465.45	-0.00385374
3475.1	-0.0041054
3484.74	-0.00290596
3494.38	-0.00262993
3504.02	-0.00355624
3513.67	-0.00267059
3523.31	-0.00266557
3532.95	-0.00390883
3542.59	-0.00510672
3552.24	-0.00358145
3561.88	-0.00466099
3571.52	0.000389384
3581.16	-0.00773836
3590.8	0.00391476
3600.45	-0.00482861
3610.09	-0.00107391
3619.73	-0.00428727
3629.37	-0.00655041
3639.02	-0.00207049
3648.66	-0.00556986
3658.3	-0.0032964
3667.94	-0.00684246
3677.59	-0.0071851
3687.23	-0.00775857
3696.87	-0.00626305
3706.51	-0.00771225
3716.16	-0.00470942
3725.8	-0.00687676
3735.44	-0.00217788
3745.08	-0.00577702
3754.72	-0.00728577
3764.37	-0.00517291
3774.01	-0.0105495
3783.65	-0.00703509
3793.29	-0.00498023
3802.94	-0.00608535
3812.58	-0.0114301
3822.22	-8.13045e-05
3831.86	-0.00654334
3841.51	-0.00258582
3851.15	-0.00542992
3860.79	-0.00929954
3870.43	-0.00760145
3880.07	-0.00546968
3889.72	-0.0091376
3899.36	-0.0110732
3909	-0.00823901
3918.64	-0.00532784
3928.29	-0.00628244
3937.93	-0.00550207
3947.57	-0.0042551
3957.21	-0.0088103
3966.86	-0.00634006
3976.5	-0.00819704
3986.14	-0.004342
3995.78	-0.0135923
