Measurement: Infrared, Infrared Data Processed
Mineral: Chrysoberyl
Rruff sample: R040073
Ideal chemistry: BeAl_2_O_4_
Locality: Brazil
Source: University of Arizona Mineral Museum
Description: Pair of green prismatic crystals
Measured chemistry: (Be_0.89_Al_0.06_Fe_0.02_)Al_2.00_O_4_
x	intensity
399.193	0
408.835	0.22656
418.477	0.240382
428.12	0.257494
437.762	0.256603
447.404	0.177663
457.047	0.218995
466.689	0.252185
476.331	0.260822
485.974	0.265292
495.616	0.26527
505.258	0.267024
514.901	0.254534
524.543	0.252346
534.185	0.246509
543.828	0.251249
553.47	0.249666
563.112	0.229133
572.755	0.221742
582.397	0.19202
592.039	0.181577
601.682	0.180385
611.324	0.16472
620.966	0.153068
630.609	0.205635
640.251	0.223193
649.893	0.187334
659.536	0.139913
669.178	0.142498
678.82	0.131139
688.463	0.122536
698.105	0.125639
707.747	0.141368
717.39	0.162116
727.032	0.183553
736.674	0.20034
746.317	0.203756
755.959	0.196974
765.601	0.206171
775.244	0.201336
784.886	0.175327
794.528	0.15021
804.171	0.130308
813.813	0.117045
823.455	0.108803
833.098	0.102578
842.74	0.0972488
852.382	0.093359
862.025	0.0896837
871.667	0.0860906
881.309	0.0831873
890.952	0.0816477
900.594	0.0788114
910.236	0.0750471
919.879	0.0690722
929.521	0.0671763
939.163	0.0718096
948.806	0.0823248
958.448	0.0890641
968.09	0.0861805
977.733	0.0834722
987.375	0.0799601
997.017	0.0750994
1006.66	0.0690015
1016.3	0.0619024
1025.94	0.0539561
1035.59	0.0465
1045.23	0.0382972
1054.87	0.0299854
1064.51	0.0229576
1074.16	0.0173018
1083.8	0.0136847
1093.44	0.0109825
1103.08	0.00965309
1112.72	0.00879677
1122.37	0.00786465
1132.01	0.00692057
1141.65	0.00596835
1151.3	0.00546499
1160.94	0.00493651
1170.58	0.00428016
1180.22	0.0039279
1189.86	0.00356946
1199.51	0.00331239
1209.15	0.00294014
1218.79	0.00303938
1228.43	0.00289428
1238.08	0.00265681
1247.72	0.00234339
1257.36	0.00235032
1267	0.00189388
1276.64	0.00187303
1286.29	0.00202434
1295.93	0.00178883
1305.57	0.00181973
1315.21	0.00186313
1324.86	0.00181216
1334.5	0.00196161
1344.14	0.00170683
1353.78	0.00195297
1363.43	0.00204725
1373.07	0.00257899
1382.71	0.00217589
1392.35	0.00226887
1401.99	0.00252
1411.64	0.00245944
1421.28	0.00279287
1430.92	0.00289013
1440.57	0.00328576
1450.21	0.00293285
1459.85	0.00353363
1469.49	0.00276364
1479.13	0.00254794
1488.78	0.00223197
1498.42	0.00233479
1508.06	0.00269609
1517.7	0.00232485
1527.35	0.00230322
1536.99	0.00255536
1546.63	0.00331981
1556.27	0.00283091
1565.91	0.00393453
1575.56	0.00332308
1585.2	0.00433255
1594.84	0.00459741
1604.48	0.00456151
1614.13	0.00452921
1623.77	0.00457207
1633.41	0.00406181
1643.05	0.00409365
1652.7	0.00322812
1662.34	0.00388081
1671.98	0.00384654
1681.62	0.00333963
1691.27	0.00381251
1700.91	0.00444369
1710.55	0.00400451
1720.19	0.00403343
1729.84	0.00414503
1739.48	0.00372519
1749.12	0.00446596
1758.76	0.00371422
1768.4	0.00380884
1778.05	0.00372679
1787.69	0.00358847
1797.33	0.00358118
1806.97	0.0035989
1816.62	0.00417119
1826.26	0.00338241
1835.9	0.00394522
1845.54	0.00417793
1855.18	0.00367701
1864.83	0.00341116
1874.47	0.0038138
1884.11	0.00348958
1893.75	0.00349761
1903.4	0.00354121
1913.04	0.00337473
1922.68	0.00245758
1932.32	0.00195061
1941.97	0.00204776
1951.61	0.00209408
1961.25	0.00103781
1970.89	0.000856552
1980.54	0.00159979
1990.18	0.00207008
1999.82	-0.000103308
2009.46	0.00246356
2019.11	0.00176333
2028.75	0.0022023
2038.39	0.0034691
2048.03	0.00611311
2057.67	0.00635445
2067.32	0.00522517
2076.96	0.00729633
2086.6	0.00598211
2096.24	0.00775202
2105.89	0.00743689
2115.53	0.00498054
2125.17	0.00555346
2134.81	0.00405843
2144.45	0.00573615
2154.1	0.00441169
2163.74	0.0101499
2173.38	0.00653928
2183.02	0.00487683
2192.67	0.00791859
2202.31	0.00602914
2211.95	0.00730124
2221.59	0.00984648
2231.24	0.00898582
2240.88	0.00929856
2250.52	0.00787271
2260.16	0.00978178
2269.8	0.00998429
2279.45	0.00959303
2289.09	0.00986637
2298.73	0.0101254
2308.38	0.0105732
2318.02	0.0111217
2327.66	0.0103609
2337.3	0.0104783
2346.94	0.0101771
2356.59	0.0104441
2366.23	0.00995947
2375.87	0.00994209
2385.51	0.0100948
2395.16	0.0102077
2404.8	0.00981309
2414.44	0.0100887
2424.08	0.00982062
2433.72	0.0106547
2443.37	0.011178
2453.01	0.0117791
2462.65	0.010475
2472.29	0.0110641
2481.94	0.0119785
2491.58	0.0109237
2501.22	0.0114161
2510.86	0.0116557
2520.51	0.0116157
2530.15	0.0115018
2539.79	0.0119381
2549.43	0.0123335
2559.07	0.0119238
2568.72	0.0124167
2578.36	0.0124691
2588	0.0123481
2597.64	0.0130541
2607.29	0.0134702
2616.93	0.0136858
2626.57	0.0132925
2636.21	0.013361
2645.86	0.0137097
2655.5	0.0129759
2665.14	0.013187
2674.78	0.013512
2684.43	0.012433
2694.07	0.0139393
2703.71	0.0134754
2713.35	0.0130557
2722.99	0.0137928
2732.64	0.0137246
2742.28	0.0138927
2751.92	0.0129709
2761.56	0.014256
2771.21	0.0140083
2780.85	0.0144515
2790.49	0.0135604
2800.13	0.0147115
2809.78	0.0145001
2819.42	0.0142443
2829.06	0.014877
2838.7	0.0158721
2848.34	0.0155534
2857.99	0.01564
2867.63	0.0152394
2877.27	0.0154647
2886.91	0.016074
2896.56	0.0163208
2906.2	0.0168399
2915.84	0.0172322
2925.48	0.0176834
2935.13	0.0174049
2944.77	0.0168901
2954.41	0.0169939
2964.05	0.0165269
2973.7	0.0166554
2983.34	0.0160079
2992.98	0.0167451
3002.62	0.0165881
3012.26	0.0160717
3021.91	0.0171678
3031.55	0.0159158
3041.19	0.0160071
3050.83	0.0178152
3060.48	0.0169404
3070.12	0.0176985
3079.76	0.0174483
3089.4	0.0182516
3099.05	0.0173313
3108.69	0.0181452
3118.33	0.016764
3127.97	0.017376
3137.61	0.0191344
3147.26	0.0177713
3156.9	0.0197856
3166.54	0.0186603
3176.18	0.0182342
3185.83	0.0188916
3195.47	0.0197741
3205.11	0.0195246
3214.75	0.0200608
3224.4	0.0184665
3234.04	0.0199702
3243.68	0.0194119
3253.32	0.018452
3262.97	0.0204425
3272.61	0.0199866
3282.25	0.0198043
3291.89	0.019636
3301.53	0.0207606
3311.18	0.0192568
3320.82	0.0195635
3330.46	0.020236
3340.1	0.0201196
3349.75	0.0207225
3359.39	0.0217363
3369.03	0.0201604
3378.67	0.0225053
3388.32	0.0229313
3397.96	0.0217678
3407.6	0.0221429
3417.24	0.0223891
3426.89	0.021517
3436.53	0.0224785
3446.17	0.0212452
3455.81	0.0230127
3465.45	0.0251426
3475.1	0.0223331
3484.74	0.0210929
3494.38	0.0209793
3504.02	0.0252531
3513.67	0.0231218
3523.31	0.0223605
3532.95	0.0224398
3542.59	0.0215428
3552.24	0.0233969
3561.88	0.0220115
3571.52	0.0243293
3581.16	0.0233862
3590.8	0.0219588
3600.45	0.0234276
3610.09	0.0227542
3619.73	0.0239271
3629.37	0.0265818
3639.02	0.0219902
3648.66	0.0216908
3658.3	0.0233396
3667.94	0.024091
3677.59	0.0238293
3687.23	0.0211528
3696.87	0.0236574
3706.51	0.0247934
3716.16	0.0248676
3725.8	0.0247121
3735.44	0.0227941
3745.08	0.0270722
3754.72	0.0259834
3764.37	0.0245084
3774.01	0.0228655
3783.65	0.0240953
3793.29	0.0267778
3802.94	0.0271877
3812.58	0.0299561
3822.22	0.0264201
3831.86	0.0258347
3841.51	0.0256894
3851.15	0.0253323
3860.79	0.0248993
3870.43	0.0273737
3880.07	0.0248307
3889.72	0.0260975
3899.36	0.0235001
3909	0.0287637
3918.64	0.0307957
3928.29	0.0257538
3937.93	0.0260099
3947.57	0.0257296
3957.21	0.0288963
3966.86	0.0265783
3976.5	0.0281706
3986.14	0.0296636
3995.78	0.0282125
