Measurement: Infrared, Infrared Data Processed
Mineral: Chrysocolla
Rruff sample: R050053
Ideal chemistry: (Cu^2+^_2-x_Al_x_)H_2-x_Si_2_O_5_(OH)_4_nH_2_O
Locality: Pima open pit, Pima County, Arizona, USA
Source: University of Arizona Mineral Museum
Description: Blue amorphous fragment
Measured chemistry: (Cu_1.65_Al_0.18_[box]_0.09_Ca_0.05_Mg_0.03_)_Σ=2_H_2_Si_2.00_O_5_(OH)_4_·0.2H_2_O
x	intensity
399.193	0
408.835	0.198348
418.477	0.200687
428.12	0.200138
437.762	0.189547
447.404	0.178656
457.047	0.173331
466.689	0.168113
476.331	0.158694
485.974	0.153541
495.616	0.150517
505.258	0.136224
514.901	0.115898
524.543	0.0998383
534.185	0.0860488
543.828	0.0771103
553.47	0.0715312
563.112	0.0674205
572.755	0.0650972
582.397	0.063664
592.039	0.0619622
601.682	0.0607874
611.324	0.0599661
620.966	0.0593653
630.609	0.0586306
640.251	0.0586604
649.893	0.0609074
659.536	0.0643559
669.178	0.0687631
678.82	0.0672259
688.463	0.0589648
698.105	0.0567426
707.747	0.0565001
717.39	0.0570999
727.032	0.0577469
736.674	0.0596559
746.317	0.0594243
755.959	0.0610816
765.601	0.062491
775.244	0.0632641
784.886	0.0618442
794.528	0.0601075
804.171	0.0582769
813.813	0.0565528
823.455	0.0556039
833.098	0.0543953
842.74	0.0549082
852.382	0.0568428
862.025	0.0607004
871.667	0.066791
881.309	0.072659
890.952	0.0788835
900.594	0.0859501
910.236	0.0925498
919.879	0.0999804
929.521	0.108146
939.163	0.119883
948.806	0.138991
958.448	0.168815
968.09	0.212296
977.733	0.26824
987.375	0.326429
997.017	0.366695
1006.66	0.376725
1016.3	0.35903
1025.94	0.321843
1035.59	0.276695
1045.23	0.227556
1054.87	0.181013
1064.51	0.149115
1074.16	0.128525
1083.8	0.114798
1093.44	0.103385
1103.08	0.0939318
1112.72	0.0858114
1122.37	0.0786303
1132.01	0.0715864
1141.65	0.0651498
1151.3	0.0596946
1160.94	0.0544774
1170.58	0.048836
1180.22	0.0435332
1189.86	0.0370636
1199.51	0.0310446
1209.15	0.02418
1218.79	0.0186738
1228.43	0.015038
1238.08	0.0127609
1247.72	0.0117474
1257.36	0.0109949
1267	0.0103769
1276.64	0.0111234
1286.29	0.0124991
1295.93	0.013521
1305.57	0.011594
1315.21	0.0108219
1324.86	0.00981526
1334.5	0.00947559
1344.14	0.00988188
1353.78	0.00956793
1363.43	0.00943343
1373.07	0.0100614
1382.71	0.0107073
1392.35	0.0111045
1401.99	0.0116829
1411.64	0.0130473
1421.28	0.0128424
1430.92	0.0125119
1440.57	0.0137135
1450.21	0.0122815
1459.85	0.011506
1469.49	0.0104271
1479.13	0.00933755
1488.78	0.00901601
1498.42	0.00916246
1508.06	0.00964345
1517.7	0.01039
1527.35	0.0118189
1536.99	0.0130823
1546.63	0.0155049
1556.27	0.0162767
1565.91	0.0179629
1575.56	0.017366
1585.2	0.018585
1594.84	0.0193336
1604.48	0.0207793
1614.13	0.0239124
1623.77	0.0283956
1633.41	0.0297381
1643.05	0.0291976
1652.7	0.0255425
1662.34	0.0239015
1671.98	0.0206246
1681.62	0.0175551
1691.27	0.0165765
1700.91	0.0147234
1710.55	0.0141607
1720.19	0.0114264
1729.84	0.00827084
1739.48	0.00581265
1749.12	0.00498667
1758.76	0.00636928
1768.4	0.00603584
1778.05	0.00694889
1787.69	0.00655301
1797.33	0.00653716
1806.97	0.00614668
1816.62	0.00605169
1826.26	0.00607707
1835.9	0.0058151
1845.54	0.00543864
1855.18	0.00679822
1864.83	0.00521664
1874.47	0.00586744
1884.11	0.00488163
1893.75	0.00503167
1903.4	0.00462151
1913.04	0.00560846
1922.68	0.00484521
1932.32	0.00248217
1941.97	0.00204524
1951.61	0.000186908
1961.25	0.000110157
1970.89	-0.00351204
1980.54	-0.000788409
1990.18	-0.00228798
1999.82	-0.00210882
2009.46	-0.00312739
2019.11	-0.00637415
2028.75	-0.00276393
2038.39	-0.00371571
2048.03	-0.000326338
2057.67	0.00192387
2067.32	-4.05019e-06
2076.96	0.00420508
2086.6	0.0017856
2096.24	0.00108038
2105.89	0.00291793
2115.53	0.00352391
2125.17	0.0027009
2134.81	0.000416389
2144.45	0.00296643
2154.1	-0.00242916
2163.74	0.00686788
2173.38	0.0029587
2183.02	0.00280563
2192.67	0.00401359
2202.31	0.00489433
2211.95	0.00661823
2221.59	0.00869891
2231.24	0.0077384
2240.88	0.00655122
2250.52	0.00745243
2260.16	0.00845101
2269.8	0.00795245
2279.45	0.00880293
2289.09	0.00950563
2298.73	0.00856133
2308.38	0.00871316
2318.02	0.00985591
2327.66	0.00935837
2337.3	0.00887428
2346.94	0.00834902
2356.59	0.00866832
2366.23	0.00681151
2375.87	0.00804016
2385.51	0.00834196
2395.16	0.00845267
2404.8	0.00827125
2414.44	0.00805474
2424.08	0.00839129
2433.72	0.00809923
2443.37	0.0091366
2453.01	0.0108054
2462.65	0.00972158
2472.29	0.00885604
2481.94	0.00911971
2491.58	0.00947863
2501.22	0.0101534
2510.86	0.0102241
2520.51	0.00945717
2530.15	0.0100226
2539.79	0.0102548
2549.43	0.0117337
2559.07	0.00967898
2568.72	0.0107083
2578.36	0.010952
2588	0.0103562
2597.64	0.0112744
2607.29	0.0110605
2616.93	0.0119185
2626.57	0.010912
2636.21	0.0129606
2645.86	0.013388
2655.5	0.0122138
2665.14	0.0120334
2674.78	0.0121546
2684.43	0.0117171
2694.07	0.0120683
2703.71	0.0131183
2713.35	0.0124104
2722.99	0.0124909
2732.64	0.0139606
2742.28	0.0130312
2751.92	0.0143356
2761.56	0.0148841
2771.21	0.0159234
2780.85	0.0161891
2790.49	0.0152764
2800.13	0.0167531
2809.78	0.0165335
2819.42	0.0178583
2829.06	0.0175899
2838.7	0.0183203
2848.34	0.0187051
2857.99	0.0190897
2867.63	0.0209362
2877.27	0.0232007
2886.91	0.0232383
2896.56	0.0238334
2906.2	0.0240056
2915.84	0.0237696
2925.48	0.0256347
2935.13	0.0263393
2944.77	0.027806
2954.41	0.0276246
2964.05	0.0300256
2973.7	0.0306423
2983.34	0.0322758
2992.98	0.0312664
3002.62	0.0327938
3012.26	0.0318573
3021.91	0.0335186
3031.55	0.0335891
3041.19	0.0337354
3050.83	0.0362348
3060.48	0.0384427
3070.12	0.0400443
3079.76	0.0414374
3089.4	0.0409857
3099.05	0.0434544
3108.69	0.043066
3118.33	0.0455698
3127.97	0.0470411
3137.61	0.0516021
3147.26	0.0515161
3156.9	0.0561455
3166.54	0.0555581
3176.18	0.0570937
3185.83	0.0593096
3195.47	0.0602108
3205.11	0.0604147
3214.75	0.0644625
3224.4	0.0645948
3234.04	0.0667568
3243.68	0.0662434
3253.32	0.0682432
3262.97	0.0692672
3272.61	0.0698313
3282.25	0.071607
3291.89	0.0722137
3301.53	0.0760751
3311.18	0.0740062
3320.82	0.0778237
3330.46	0.0761567
3340.1	0.0781021
3349.75	0.0787832
3359.39	0.0811677
3369.03	0.0834751
3378.67	0.082245
3388.32	0.0839237
3397.96	0.0850934
3407.6	0.0821451
3417.24	0.0820902
3426.89	0.0844571
3436.53	0.0820595
3446.17	0.0801067
3455.81	0.0799397
3465.45	0.0795898
3475.1	0.0791507
3484.74	0.0788606
3494.38	0.0768209
3504.02	0.0773772
3513.67	0.0749739
3523.31	0.0702332
3532.95	0.0705105
3542.59	0.0685848
3552.24	0.0671719
3561.88	0.0686691
3571.52	0.0705964
3581.16	0.0633178
3590.8	0.0687793
3600.45	0.0661485
3610.09	0.0651829
3619.73	0.0589149
3629.37	0.0525742
3639.02	0.0366266
3648.66	0.0339069
3658.3	0.0277803
3667.94	0.0189411
3677.59	0.0173263
3687.23	0.0141263
3696.87	0.0160694
3706.51	0.0111423
3716.16	0.0175094
3725.8	0.015135
3735.44	0.0143855
3745.08	0.0183089
3754.72	0.013719
3764.37	0.0137532
3774.01	0.013725
3783.65	0.0186507
3793.29	0.0174827
3802.94	0.0175551
3812.58	0.0174658
3822.22	0.0200927
3831.86	0.0134188
3841.51	0.0184562
3851.15	0.0107103
3860.79	0.0135652
3870.43	0.0164954
3880.07	0.0194704
3889.72	0.0208119
3899.36	0.0172118
3909	0.0165508
3918.64	0.0179501
3928.29	0.0177364
3937.93	0.0205706
3947.57	0.0180407
3957.21	0.0202043
3966.86	0.0170854
3976.5	0.0219692
3986.14	0.0195698
3995.78	0.0169652
