Measurement: Infrared, Infrared Data Processed
Mineral: Churchite-(Y)
Rruff sample: R050421
Ideal chemistry: YPO_4_2H_2_O
Locality: Vesuvius, Virginia, USA
Source: Marcus Origlieri
Description: Colorless acicular radiating groups
Measured chemistry: (Y_0.94_Er_0.01_Gd_0.01_Dy_0.01_Yb_0.01_Ca_0.02_)_Î£=1.00_(PO_4_)_0.97_1.28H_2_O
x	intensity
399.193	0.316239
408.835	0.353896
418.477	0.401144
428.12	0.411574
437.762	0.402697
447.404	0.426915
457.047	0.407368
466.689	0.368973
476.331	0.284581
485.974	0.22746
495.616	0.219674
505.258	0.241529
514.901	0.264781
524.543	0.259277
534.185	0.235233
543.828	0.190732
553.47	0.158877
563.112	0.135913
572.755	0.11627
582.397	0.0992941
592.039	0.0899535
601.682	0.0834858
611.324	0.0802369
620.966	0.0790342
630.609	0.0792986
640.251	0.0787475
649.893	0.0768833
659.536	0.0776141
669.178	0.0834975
678.82	0.0928307
688.463	0.109445
698.105	0.110235
707.747	0.0750519
717.39	0.060835
727.032	0.0631698
736.674	0.0772822
746.317	0.0991495
755.959	0.113393
765.601	0.125256
775.244	0.188226
784.886	0.170773
794.528	0.205613
804.171	0.144813
813.813	0.0849437
823.455	0.0902253
833.098	0.0908411
842.74	0.0841372
852.382	0.0849365
862.025	0.0943409
871.667	0.116363
881.309	0.152754
890.952	0.208065
900.594	0.285264
910.236	0.341114
919.879	0.297346
929.521	0.285189
939.163	0.294978
948.806	0.322798
958.448	0.422173
968.09	0.54317
977.733	0.620853
987.375	0.659574
997.017	0.689611
1006.66	0.669738
1016.3	0.599001
1025.94	0.571885
1035.59	0.490967
1045.23	0.404684
1054.87	0.356074
1064.51	0.309709
1074.16	0.274146
1083.8	0.254218
1093.44	0.224105
1103.08	0.193911
1112.72	0.178692
1122.37	0.156603
1132.01	0.134968
1141.65	0.117554
1151.3	0.101083
1160.94	0.103225
1170.58	0.0916939
1180.22	0.0752457
1189.86	0.0611474
1199.51	0.0460703
1209.15	0.0327257
1218.79	0.0227058
1228.43	0.0173201
1238.08	0.0153055
1247.72	0.0137252
1257.36	0.0128603
1267	0.0119283
1276.64	0.0128811
1286.29	0.0130661
1295.93	0.0100685
1305.57	0.00893824
1315.21	0.00842654
1324.86	0.00765824
1334.5	0.00720346
1344.14	0.00706727
1353.78	0.00684448
1363.43	0.00681503
1373.07	0.00695726
1382.71	0.00675716
1392.35	0.00711682
1401.99	0.0078951
1411.64	0.00854791
1421.28	0.00823847
1430.92	0.00883039
1440.57	0.00975925
1450.21	0.00941527
1459.85	0.00942995
1469.49	0.0086793
1479.13	0.00732597
1488.78	0.00605227
1498.42	0.00577316
1508.06	0.00606717
1517.7	0.00548353
1527.35	0.0064167
1536.99	0.00591395
1546.63	0.00582822
1556.27	0.00588978
1565.91	0.00656867
1575.56	0.0067881
1585.2	0.00772599
1594.84	0.008317
1604.48	0.00912846
1614.13	0.00977161
1623.77	0.00984073
1633.41	0.00928875
1643.05	0.00924972
1652.7	0.00865457
1662.34	0.00953797
1671.98	0.00934022
1681.62	0.00957619
1691.27	0.00936821
1700.91	0.0111169
1710.55	0.0108204
1720.19	0.00926426
1729.84	0.00795727
1739.48	0.00562181
1749.12	0.00520013
1758.76	0.00552469
1768.4	0.00572167
1778.05	0.00628796
1787.69	0.00648696
1797.33	0.00574465
1806.97	0.00621124
1816.62	0.00524457
1826.26	0.00522599
1835.9	0.00535015
1845.54	0.0045829
1855.18	0.00524133
1864.83	0.00630281
1874.47	0.00541303
1884.11	0.00475911
1893.75	0.00587056
1903.4	0.00321922
1913.04	0.00269481
1922.68	0.00120919
1932.32	0.000477191
1941.97	0.000313419
1951.61	-0.00316646
1961.25	-0.00586441
1970.89	-0.00777975
1980.54	-0.00678772
1990.18	-0.00396683
1999.82	-0.00556834
2009.46	-0.00673458
2019.11	-0.00794407
2028.75	-0.0094074
2038.39	-0.00622753
2048.03	-0.00496207
2057.67	-0.00282877
2067.32	-0.00102114
2076.96	-0.00239018
2086.6	-0.00258123
2096.24	-0.001417
2105.89	0.000554263
2115.53	-0.000427836
2125.17	7.28125e-05
2134.81	-0.00395976
2144.45	-0.00689124
2154.1	-0.0127072
2163.74	-0.00468401
2173.38	-0.00552605
2183.02	0.000680024
2192.67	-0.00240131
2202.31	0.00128743
2211.95	-0.00254839
2221.59	0.00126155
2231.24	-0.00186043
2240.88	0.000771014
2250.52	0.00214001
2260.16	0.00182665
2269.8	0.00468883
2279.45	0.0043168
2289.09	0.00631057
2298.73	0.00570107
2308.38	0.006522
2318.02	0.00718993
2327.66	0.00457218
2337.3	0.00497145
2346.94	0.00684937
2356.59	0.00375503
2366.23	0.00312109
2375.87	0.00643272
2385.51	0.00742922
2395.16	0.00670049
2404.8	0.00702479
2414.44	0.00827974
2424.08	0.00802286
2433.72	0.00817601
2443.37	0.00833593
2453.01	0.00922867
2462.65	0.00980058
2472.29	0.0090703
2481.94	0.00922304
2491.58	0.00889722
2501.22	0.00876897
2510.86	0.00957087
2520.51	0.00919462
2530.15	0.01057
2539.79	0.010967
2549.43	0.0107129
2559.07	0.00889838
2568.72	0.0103085
2578.36	0.0114751
2588	0.0103519
2597.64	0.0111863
2607.29	0.0114426
2616.93	0.0118588
2626.57	0.0122162
2636.21	0.0134881
2645.86	0.012807
2655.5	0.0133452
2665.14	0.0119888
2674.78	0.0126289
2684.43	0.0120539
2694.07	0.0127706
2703.71	0.013205
2713.35	0.0124713
2722.99	0.0145468
2732.64	0.013682
2742.28	0.0144858
2751.92	0.0140567
2761.56	0.0153271
2771.21	0.0147218
2780.85	0.0158436
2790.49	0.0157596
2800.13	0.0169351
2809.78	0.0168668
2819.42	0.0167755
2829.06	0.0180536
2838.7	0.0182765
2848.34	0.0180081
2857.99	0.0193263
2867.63	0.0207721
2877.27	0.0186285
2886.91	0.0188013
2896.56	0.0215027
2906.2	0.0232099
2915.84	0.0247414
2925.48	0.0255937
2935.13	0.0226726
2944.77	0.0230441
2954.41	0.0257417
2964.05	0.0246411
2973.7	0.0230367
2983.34	0.0227322
2992.98	0.0208699
3002.62	0.0217362
3012.26	0.0224902
3021.91	0.0232691
3031.55	0.0275315
3041.19	0.0269356
3050.83	0.0258025
3060.48	0.0288365
3070.12	0.0281399
3079.76	0.0277491
3089.4	0.0282635
3099.05	0.0300428
3108.69	0.0323359
3118.33	0.0314667
3127.97	0.0332523
3137.61	0.034514
3147.26	0.0343584
3156.9	0.0326958
3166.54	0.0359631
3176.18	0.0363167
3185.83	0.0362528
3195.47	0.0381587
3205.11	0.0382042
3214.75	0.0369925
3224.4	0.0374391
3234.04	0.0375089
3243.68	0.0383733
3253.32	0.0350835
3262.97	0.0371684
3272.61	0.0401703
3282.25	0.0371602
3291.89	0.036091
3301.53	0.0364478
3311.18	0.0378045
3320.82	0.0354932
3330.46	0.038762
3340.1	0.0347138
3349.75	0.0342346
3359.39	0.0368253
3369.03	0.0353523
3378.67	0.0360153
3388.32	0.0367785
3397.96	0.0371933
3407.6	0.037068
3417.24	0.0395582
3426.89	0.0364469
3436.53	0.0343044
3446.17	0.0359429
3455.81	0.0351221
3465.45	0.0358389
3475.1	0.0350235
3484.74	0.0369344
3494.38	0.0374125
3504.02	0.0351577
3513.67	0.0372427
3523.31	0.0374581
3532.95	0.0381273
3542.59	0.0374955
3552.24	0.0364366
3561.88	0.0364609
3571.52	0.0371326
3581.16	0.0452023
3590.8	0.0560133
3600.45	0.0695797
3610.09	0.078694
3619.73	0.112494
3629.37	0.0816683
3639.02	0.0722248
3648.66	0.0681992
3658.3	0.064635
3667.94	0.063337
3677.59	0.0633626
3687.23	0.0840883
3696.87	0.0999755
3706.51	0.0623398
3716.16	0.0305322
3725.8	0.0196082
3735.44	0.0267631
3745.08	0.0197665
3754.72	0.0192722
3764.37	0.021284
3774.01	0.0225286
3783.65	0.0265479
3793.29	0.0188971
3802.94	0.0234005
3812.58	0.0226243
3822.22	0.0244412
3831.86	0.024207
3841.51	0.0240071
3851.15	0.0233528
3860.79	0.0207083
3870.43	0.0213833
3880.07	0.0274565
3889.72	0.0279678
3899.36	0.0236428
3909	0.0243074
3918.64	0.0218542
3928.29	0.0237993
3937.93	0.0219399
3947.57	0.0308466
3957.21	0.0257249
3966.86	0.0266348
3976.5	0.0257725
3986.14	0.0260414
3995.78	0.0265098
