Measurement: Infrared, Infrared Data Processed
Mineral: Cinnabar
Rruff sample: R050072
Ideal chemistry: HgS
Locality: Gui Zhu, Hunan Province, China
Source: Rock Currier
Description: Red single crystal associated with calcite
Measured chemistry: Hg_1.00_S_1.00_
x	intensity
399.193	0
408.835	0.205137
418.477	0.218211
428.12	0.2288
437.762	0.24035
447.404	0.251794
457.047	0.261379
466.689	0.267266
476.331	0.275709
485.974	0.279532
495.616	0.286905
505.258	0.295184
514.901	0.301893
524.543	0.304941
534.185	0.311808
543.828	0.318723
553.47	0.325599
563.112	0.330494
572.755	0.332116
582.397	0.338213
592.039	0.342436
601.682	0.348257
611.324	0.355154
620.966	0.35999
630.609	0.36508
640.251	0.366744
649.893	0.370932
659.536	0.374097
669.178	0.37703
678.82	0.380705
688.463	0.384653
698.105	0.388147
707.747	0.392649
717.39	0.39565
727.032	0.398783
736.674	0.402588
746.317	0.406727
755.959	0.411998
765.601	0.414971
775.244	0.417508
784.886	0.420436
794.528	0.424472
804.171	0.429424
813.813	0.43474
823.455	0.439087
833.098	0.443234
842.74	0.444721
852.382	0.447198
862.025	0.450913
871.667	0.454791
881.309	0.459502
890.952	0.463264
900.594	0.465361
910.236	0.468877
919.879	0.473567
929.521	0.476254
939.163	0.481001
948.806	0.485039
958.448	0.489186
968.09	0.49381
977.733	0.498073
987.375	0.503365
997.017	0.508184
1006.66	0.51354
1016.3	0.517894
1025.94	0.518814
1035.59	0.522075
1045.23	0.524481
1054.87	0.526631
1064.51	0.528273
1074.16	0.531325
1083.8	0.534826
1093.44	0.536362
1103.08	0.539939
1112.72	0.542771
1122.37	0.545652
1132.01	0.549777
1141.65	0.555371
1151.3	0.557635
1160.94	0.558455
1170.58	0.557992
1180.22	0.561041
1189.86	0.564341
1199.51	0.566963
1209.15	0.568553
1218.79	0.57156
1228.43	0.573098
1238.08	0.57494
1247.72	0.575478
1257.36	0.575545
1267	0.575341
1276.64	0.578122
1286.29	0.581777
1295.93	0.584564
1305.57	0.586311
1315.21	0.589084
1324.86	0.591267
1334.5	0.593983
1344.14	0.597223
1353.78	0.600627
1363.43	0.604708
1373.07	0.606766
1382.71	0.609213
1392.35	0.611865
1401.99	0.614789
1411.64	0.61798
1421.28	0.620507
1430.92	0.623086
1440.57	0.626847
1450.21	0.630791
1459.85	0.633988
1469.49	0.635463
1479.13	0.636765
1488.78	0.639839
1498.42	0.644155
1508.06	0.646223
1517.7	0.645789
1527.35	0.648239
1536.99	0.651015
1546.63	0.653482
1556.27	0.656371
1565.91	0.659201
1575.56	0.662453
1585.2	0.666062
1594.84	0.668423
1604.48	0.67089
1614.13	0.674127
1623.77	0.675907
1633.41	0.678501
1643.05	0.681399
1652.7	0.683514
1662.34	0.686167
1671.98	0.688367
1681.62	0.690977
1691.27	0.693035
1700.91	0.69385
1710.55	0.696712
1720.19	0.699706
1729.84	0.701717
1739.48	0.70231
1749.12	0.703237
1758.76	0.708762
1768.4	0.712542
1778.05	0.713228
1787.69	0.713387
1797.33	0.713296
1806.97	0.713969
1816.62	0.7156
1826.26	0.716569
1835.9	0.718287
1845.54	0.719947
1855.18	0.721206
1864.83	0.724012
1874.47	0.725194
1884.11	0.727283
1893.75	0.727369
1903.4	0.728497
1913.04	0.729597
1922.68	0.728437
1932.32	0.72757
1941.97	0.726709
1951.61	0.721874
1961.25	0.719453
1970.89	0.714208
1980.54	0.720495
1990.18	0.72532
1999.82	0.723655
2009.46	0.720122
2019.11	0.721655
2028.75	0.720695
2038.39	0.732343
2048.03	0.742363
2057.67	0.74882
2067.32	0.754578
2076.96	0.759917
2086.6	0.763587
2096.24	0.764205
2105.89	0.768948
2115.53	0.770557
2125.17	0.770919
2134.81	0.765623
2144.45	0.759859
2154.1	0.749482
2163.74	0.749669
2173.38	0.760267
2183.02	0.764946
2192.67	0.772952
2202.31	0.777449
2211.95	0.78522
2221.59	0.785861
2231.24	0.791059
2240.88	0.795276
2250.52	0.803655
2260.16	0.806362
2269.8	0.808352
2279.45	0.816168
2289.09	0.821601
2298.73	0.82708
2308.38	0.832014
2318.02	0.836162
2327.66	0.838762
2337.3	0.842261
2346.94	0.844149
2356.59	0.845643
2366.23	0.847559
2375.87	0.848124
2385.51	0.849861
2395.16	0.850842
2404.8	0.852038
2414.44	0.853751
2424.08	0.856159
2433.72	0.858317
2443.37	0.859578
2453.01	0.861449
2462.65	0.865618
2472.29	0.868305
2481.94	0.867179
2491.58	0.870172
2501.22	0.873953
2510.86	0.876956
2520.51	0.877151
2530.15	0.879084
2539.79	0.881155
2549.43	0.884
2559.07	0.887775
2568.72	0.890224
2578.36	0.891818
2588	0.894666
2597.64	0.897788
2607.29	0.900536
2616.93	0.903136
2626.57	0.907235
2636.21	0.911967
2645.86	0.914503
2655.5	0.916734
2665.14	0.919117
2674.78	0.921132
2684.43	0.922402
2694.07	0.924843
2703.71	0.928317
2713.35	0.92933
2722.99	0.9315
2732.64	0.933655
2742.28	0.935638
2751.92	0.937477
2761.56	0.939387
2771.21	0.940783
2780.85	0.944289
2790.49	0.946543
2800.13	0.946566
2809.78	0.948925
2819.42	0.952096
2829.06	0.95431
2838.7	0.957712
2848.34	0.958603
2857.99	0.958491
2867.63	0.96381
2877.27	0.966789
2886.91	0.968774
2896.56	0.970152
2906.2	0.972702
2915.84	0.972656
2925.48	0.971074
2935.13	0.973121
2944.77	0.974913
2954.41	0.978614
2964.05	0.979899
2973.7	0.980274
2983.34	0.981753
2992.98	0.983355
3002.62	0.986867
3012.26	0.988081
3021.91	0.990006
3031.55	0.99195
3041.19	0.994632
3050.83	0.997914
3060.48	0.999176
3070.12	1.0006
3079.76	1.00348
3089.4	1.00615
3099.05	1.00619
3108.69	1.00939
3118.33	1.01109
3127.97	1.0119
3137.61	1.01428
3147.26	1.01739
3156.9	1.01862
3166.54	1.02225
3176.18	1.02349
3185.83	1.02403
3195.47	1.02877
3205.11	1.02913
3214.75	1.03253
3224.4	1.03622
3234.04	1.03725
3243.68	1.03901
3253.32	1.04211
3262.97	1.04505
3272.61	1.04866
3282.25	1.05001
3291.89	1.05218
3301.53	1.05617
3311.18	1.05815
3320.82	1.0593
3330.46	1.06079
3340.1	1.06287
3349.75	1.06464
3359.39	1.06568
3369.03	1.06611
3378.67	1.07099
3388.32	1.07211
3397.96	1.07507
3407.6	1.07751
3417.24	1.07844
3426.89	1.08044
3436.53	1.08178
3446.17	1.0843
3455.81	1.08704
3465.45	1.08921
3475.1	1.0883
3484.74	1.09219
3494.38	1.09563
3504.02	1.09439
3513.67	1.09817
3523.31	1.10069
3532.95	1.10024
3542.59	1.10402
3552.24	1.10374
3561.88	1.10547
3571.52	1.10654
3581.16	1.1104
3590.8	1.11129
3600.45	1.11213
3610.09	1.11473
3619.73	1.11514
3629.37	1.11999
3639.02	1.12012
3648.66	1.12119
3658.3	1.12307
3667.94	1.12443
3677.59	1.12838
3687.23	1.12904
3696.87	1.13101
3706.51	1.1324
3716.16	1.13541
3725.8	1.13614
3735.44	1.14477
3745.08	1.1474
3754.72	1.14648
3764.37	1.14986
3774.01	1.14911
3783.65	1.14863
3793.29	1.15167
3802.94	1.15699
3812.58	1.15769
3822.22	1.16428
3831.86	1.16118
3841.51	1.16415
3851.15	1.16549
3860.79	1.16969
3870.43	1.1722
3880.07	1.17188
3889.72	1.17565
3899.36	1.17926
3909	1.1808
3918.64	1.18033
3928.29	1.18285
3937.93	1.18698
3947.57	1.18647
3957.21	1.18888
3966.86	1.19179
3976.5	1.19521
3986.14	1.19599
3995.78	1.19572
