Measurement: Infrared, Infrared Data Processed
Mineral: Clinofergusonite-(Ce)
Rruff sample: R080102
Ideal chemistry: Ce^3+^Nb^5+^O_4_
Locality: Amherst County, Virginia, USA
Source: Michael Scott
Description: Tan to light brown colored fragment from metamict sample R070300, after heating at T = 1000 C for 20 hours
x	intensity
399.193	0.232959
408.835	0.22541
418.477	0.23724
428.12	0.256537
437.762	0.272175
447.404	0.277723
457.047	0.263505
466.689	0.249934
476.331	0.230734
485.974	0.209676
495.616	0.221447
505.258	0.257775
514.901	0.299072
524.543	0.32813
534.185	0.332232
543.828	0.322535
553.47	0.343647
563.112	0.356275
572.755	0.35986
582.397	0.358742
592.039	0.353039
601.682	0.348459
611.324	0.342296
620.966	0.333778
630.609	0.328431
640.251	0.316634
649.893	0.298874
659.536	0.278466
669.178	0.257921
678.82	0.241197
688.463	0.224193
698.105	0.204189
707.747	0.184454
717.39	0.166194
727.032	0.149976
736.674	0.136705
746.317	0.126738
755.959	0.118634
765.601	0.112272
775.244	0.106703
784.886	0.104336
794.528	0.108097
804.171	0.109861
813.813	0.100687
823.455	0.0842726
833.098	0.068293
842.74	0.0538747
852.382	0.0410974
862.025	0.0321537
871.667	0.0283586
881.309	0.0272851
890.952	0.0262574
900.594	0.0246929
910.236	0.0229726
919.879	0.0221901
929.521	0.0218092
939.163	0.0216969
948.806	0.0221628
958.448	0.0228792
968.09	0.0234771
977.733	0.0240932
987.375	0.0252112
997.017	0.0261051
1006.66	0.0270289
1016.3	0.0283376
1025.94	0.029741
1035.59	0.0315967
1045.23	0.0339438
1054.87	0.036876
1064.51	0.0414229
1074.16	0.0500249
1083.8	0.0617676
1093.44	0.0699669
1103.08	0.0741413
1112.72	0.0713267
1122.37	0.0659156
1132.01	0.060836
1141.65	0.0580421
1151.3	0.0559697
1160.94	0.0535048
1170.58	0.0501831
1180.22	0.0451989
1189.86	0.0408236
1199.51	0.0386738
1209.15	0.0334269
1218.79	0.0283147
1228.43	0.0248552
1238.08	0.0227859
1247.72	0.0206423
1257.36	0.0186779
1267	0.0178737
1276.64	0.0169897
1286.29	0.0161537
1295.93	0.0159681
1305.57	0.0161188
1315.21	0.0166633
1324.86	0.0167219
1334.5	0.0170072
1344.14	0.0175907
1353.78	0.0180823
1363.43	0.0190742
1373.07	0.0199352
1382.71	0.0205982
1392.35	0.0211249
1401.99	0.0216968
1411.64	0.0223127
1421.28	0.0229347
1430.92	0.0242783
1440.57	0.025082
1450.21	0.0259623
1459.85	0.0263663
1469.49	0.0255342
1479.13	0.0244561
1488.78	0.0246315
1498.42	0.0245165
1508.06	0.0251973
1517.7	0.0259023
1527.35	0.0266228
1536.99	0.0277962
1546.63	0.0284989
1556.27	0.0293928
1565.91	0.0298514
1575.56	0.0306462
1585.2	0.0305518
1594.84	0.0308854
1604.48	0.0312119
1614.13	0.0319011
1623.77	0.0327173
1633.41	0.033101
1643.05	0.0334873
1652.7	0.0339005
1662.34	0.0327039
1671.98	0.0321006
1681.62	0.0316014
1691.27	0.0315178
1700.91	0.0323433
1710.55	0.0330978
1720.19	0.0367617
1729.84	0.0388634
1739.48	0.0370302
1749.12	0.032949
1758.76	0.0322248
1768.4	0.0322373
1778.05	0.0327757
1787.69	0.0331984
1797.33	0.0336321
1806.97	0.0339141
1816.62	0.034185
1826.26	0.0350593
1835.9	0.0354213
1845.54	0.0357752
1855.18	0.0360232
1864.83	0.0367029
1874.47	0.0374219
1884.11	0.0374539
1893.75	0.0381682
1903.4	0.038851
1913.04	0.0384535
1922.68	0.0387475
1932.32	0.0399002
1941.97	0.0397955
1951.61	0.0397688
1961.25	0.0406942
1970.89	0.0402984
1980.54	0.042892
1990.18	0.0424688
1999.82	0.0432505
2009.46	0.0433847
2019.11	0.0439957
2028.75	0.043589
2038.39	0.0452577
2048.03	0.0451108
2057.67	0.0457533
2067.32	0.0462812
2076.96	0.0467332
2086.6	0.0472308
2096.24	0.0474494
2105.89	0.0477607
2115.53	0.0484363
2125.17	0.0471015
2134.81	0.0464218
2144.45	0.0473086
2154.1	0.0446906
2163.74	0.0501047
2173.38	0.0485844
2183.02	0.0503818
2192.67	0.0505847
2202.31	0.0510523
2211.95	0.0502512
2221.59	0.0510947
2231.24	0.0516628
2240.88	0.0530043
2250.52	0.0528343
2260.16	0.0534723
2269.8	0.0546781
2279.45	0.0548348
2289.09	0.0555551
2298.73	0.055136
2308.38	0.056168
2318.02	0.0572829
2327.66	0.0568919
2337.3	0.0571835
2346.94	0.0570716
2356.59	0.0577559
2366.23	0.0581612
2375.87	0.0576913
2385.51	0.0578437
2395.16	0.0580261
2404.8	0.05855
2414.44	0.05959
2424.08	0.0601597
2433.72	0.0605899
2443.37	0.0603781
2453.01	0.0605969
2462.65	0.0609342
2472.29	0.061777
2481.94	0.0620114
2491.58	0.0620696
2501.22	0.0627103
2510.86	0.0631431
2520.51	0.0640292
2530.15	0.0644285
2539.79	0.0652209
2549.43	0.0653221
2559.07	0.0655931
2568.72	0.0661966
2578.36	0.0670268
2588	0.0677285
2597.64	0.0670649
2607.29	0.0682066
2616.93	0.0689467
2626.57	0.0687508
2636.21	0.0694435
2645.86	0.0698089
2655.5	0.0699997
2665.14	0.0699888
2674.78	0.0703338
2684.43	0.07081
2694.07	0.0716282
2703.71	0.0715354
2713.35	0.0721793
2722.99	0.0724956
2732.64	0.0731739
2742.28	0.0737137
2751.92	0.0739409
2761.56	0.0743215
2771.21	0.0749126
2780.85	0.0754485
2790.49	0.0758755
2800.13	0.0764991
2809.78	0.0769774
2819.42	0.078084
2829.06	0.0789429
2838.7	0.0813262
2848.34	0.0836775
2857.99	0.0851463
2867.63	0.083884
2877.27	0.0839977
2886.91	0.084269
2896.56	0.0867813
2906.2	0.0893248
2915.84	0.0921932
2925.48	0.0952439
2935.13	0.0917559
2944.77	0.0896145
2954.41	0.0911499
2964.05	0.0896653
2973.7	0.0871047
2983.34	0.0853448
2992.98	0.0858944
3002.62	0.0859501
3012.26	0.0866719
3021.91	0.0865933
3031.55	0.087089
3041.19	0.0876957
3050.83	0.0884404
3060.48	0.0889189
3070.12	0.0898436
3079.76	0.0903318
3089.4	0.0904517
3099.05	0.091269
3108.69	0.0915934
3118.33	0.0930102
3127.97	0.0930245
3137.61	0.0939973
3147.26	0.0947103
3156.9	0.0949718
3166.54	0.0962987
3176.18	0.0965149
3185.83	0.097239
3195.47	0.0973538
3205.11	0.0989572
3214.75	0.0983862
3224.4	0.0991296
3234.04	0.100183
3243.68	0.10117
3253.32	0.100798
3262.97	0.101421
3272.61	0.102239
3282.25	0.102524
3291.89	0.102866
3301.53	0.102597
3311.18	0.104168
3320.82	0.104236
3330.46	0.104141
3340.1	0.105309
3349.75	0.105466
3359.39	0.105723
3369.03	0.106094
3378.67	0.105926
3388.32	0.106164
3397.96	0.105218
3407.6	0.106386
3417.24	0.105561
3426.89	0.106026
3436.53	0.105493
3446.17	0.106311
3455.81	0.106255
3465.45	0.105606
3475.1	0.105139
3484.74	0.104687
3494.38	0.105336
3504.02	0.105066
3513.67	0.10437
3523.31	0.103192
3532.95	0.103093
3542.59	0.102777
3552.24	0.101799
3561.88	0.101531
3571.52	0.101131
3581.16	0.100343
3590.8	0.0996287
3600.45	0.0997148
3610.09	0.0979781
3619.73	0.0973726
3629.37	0.0992969
3639.02	0.0969499
3648.66	0.0988248
3658.3	0.0988054
3667.94	0.0992307
3677.59	0.0990872
3687.23	0.0990399
3696.87	0.0994448
3706.51	0.0993524
3716.16	0.100595
3725.8	0.100714
3735.44	0.101808
3745.08	0.102201
3754.72	0.100706
3764.37	0.10101
3774.01	0.101359
3783.65	0.101444
3793.29	0.102172
3802.94	0.103241
3812.58	0.102783
3822.22	0.103619
3831.86	0.103426
3841.51	0.104189
3851.15	0.10419
3860.79	0.104042
3870.43	0.104932
3880.07	0.105041
3889.72	0.105599
3899.36	0.106536
3909	0.10673
3918.64	0.105511
3928.29	0.10699
3937.93	0.107191
3947.57	0.106274
3957.21	0.106675
3966.86	0.107387
3976.5	0.10752
3986.14	0.107946
3995.78	0.108719
