Measurement: Infrared, Infrared Data Processed
Mineral: Clintonite
Rruff sample: R070229
Ideal chemistry: CaAlMg_2_(SiAl_3_)O_10_(OH)_2_
Locality: Amity, Warwick Township, Orange County, New York, USA
Source: Michael Scott
Description: Brown micaceous plates in dolomite. Polytype 1M, variety called seybertite
Measured chemistry: (Ca_0.98_Na_0.02_)_Σ=1_(Al_0.68_Mg_0.20_Fe^3+^_0.11_Ti_0.01_)_Σ=1_Mg_2.00_(Si_1.34_Al_2.66_)_Σ=4_O_10_((OH)_1.87_O_0.13_)_Σ=2_; OH estimated by charge balance
x	intensity
374.123	0.230554
383.765	0.234734
393.407	0.221311
403.05	0.226105
412.692	0.227942
422.334	0.231567
431.976	0.237326
441.619	0.243632
451.261	0.234278
460.904	0.217396
470.546	0.196038
480.188	0.186536
489.83	0.178156
499.473	0.162419
509.115	0.158663
518.758	0.150716
528.4	0.135566
538.042	0.120394
547.684	0.110708
557.327	0.11052
566.969	0.109082
576.611	0.10811
586.254	0.12033
595.896	0.135726
605.538	0.150165
615.181	0.161335
624.823	0.16993
634.466	0.188104
644.108	0.206136
653.75	0.209172
663.393	0.19652
673.035	0.169404
682.677	0.136296
692.319	0.112536
701.962	0.105476
711.604	0.10224
721.246	0.100749
730.889	0.102501
740.531	0.104869
750.173	0.112226
759.816	0.126116
769.458	0.14769
779.101	0.16872
788.743	0.177318
798.385	0.170694
808.028	0.161905
817.67	0.152209
827.312	0.138089
836.955	0.122283
846.597	0.107286
856.239	0.0931797
865.881	0.0873716
875.524	0.113465
885.166	0.148699
894.808	0.155412
904.451	0.155062
914.093	0.158436
923.736	0.161473
933.378	0.157666
943.02	0.147944
952.663	0.136488
962.305	0.122668
971.947	0.107408
981.59	0.0957109
991.232	0.0844899
1000.87	0.0706193
1010.52	0.0569298
1020.16	0.0462131
1029.8	0.038333
1039.44	0.0331807
1049.09	0.0296426
1058.73	0.0268672
1068.37	0.0240217
1078.01	0.0213821
1087.65	0.0185377
1097.3	0.016318
1106.94	0.0145942
1116.58	0.0127312
1126.22	0.0111959
1135.87	0.010171
1145.51	0.00911969
1155.15	0.00821497
1164.79	0.00725188
1174.44	0.00636545
1184.08	0.00630669
1193.72	0.00579407
1203.36	0.00505922
1213.01	0.00468959
1222.65	0.00430629
1232.29	0.00390936
1241.93	0.00350367
1251.58	0.00310228
1261.22	0.00265227
1270.86	0.00289503
1280.5	0.0032423
1290.14	0.00320091
1299.79	0.00316286
1309.43	0.00323918
1319.07	0.00321764
1328.71	0.00333674
1338.36	0.00364705
1348	0.00400389
1357.64	0.00450237
1367.28	0.00509277
1376.92	0.006957
1386.57	0.00670621
1396.21	0.00783735
1405.85	0.00863042
1415.49	0.00909066
1425.14	0.00938899
1434.78	0.00962386
1444.42	0.00958818
1454.06	0.0097037
1463.71	0.00905148
1473.35	0.00781683
1482.99	0.0074456
1492.63	0.00722217
1502.28	0.00721624
1511.92	0.00667939
1521.56	0.0063604
1531.2	0.00599767
1540.85	0.00625422
1550.49	0.00600224
1560.13	0.00600948
1569.77	0.00577142
1579.41	0.00582726
1589.06	0.00615711
1598.7	0.00621598
1608.34	0.00631797
1617.98	0.00646021
1627.63	0.00667677
1637.27	0.00680867
1646.91	0.00650187
1656.55	0.00596723
1666.19	0.00573646
1675.84	0.00500363
1685.48	0.00463105
1695.12	0.00430817
1704.77	0.00393172
1714.41	0.00365995
1724.05	0.00311516
1733.69	0.00253259
1743.33	0.00172398
1752.98	0.00171854
1762.62	0.0022898
1772.26	0.0021572
1781.9	0.00218032
1791.55	0.00252978
1801.19	0.00222604
1810.83	0.00221534
1820.47	0.00207991
1830.12	0.0017348
1839.76	0.00185424
1849.4	0.00193845
1859.04	0.00185476
1868.68	0.00187192
1878.33	0.00184523
1887.97	0.00161794
1897.61	0.00139431
1907.25	0.0014617
1916.9	0.00160313
1926.54	0.00143794
1936.18	0.00171511
1945.82	0.00077616
1955.46	0.000461395
1965.11	-0.000818636
1974.75	-0.00118578
1984.39	0.00156352
1994.04	0.00148163
2003.68	0.000343665
2013.32	0.00160964
2022.96	0.000945846
2032.6	0.00144737
2042.25	0.00291275
2051.89	0.00289047
2061.53	0.0025952
2071.17	0.00239096
2080.82	0.00301877
2090.46	0.00244054
2100.1	0.00240088
2109.74	0.00336305
2119.39	0.00242617
2129.03	0.00148841
2138.67	0.00137261
2148.31	0.000718149
2157.95	-0.000406176
2167.6	0.00346995
2177.24	0.00332684
2186.88	0.00519383
2196.52	0.00439332
2206.17	0.00345181
2215.81	0.0040171
2225.45	0.00408824
2235.09	0.00463562
2244.74	0.00486918
2254.38	0.00445287
2264.02	0.00483501
2273.66	0.00503226
2283.3	0.00590777
2292.95	0.00543118
2302.59	0.00525573
2312.23	0.00598913
2321.87	0.00678388
2331.52	0.00519001
2341.16	0.00525866
2350.8	0.00541305
2360.44	0.00532423
2370.09	0.0049753
2379.73	0.00492756
2389.37	0.00504541
2399.01	0.00470863
2408.66	0.00523
2418.3	0.0056326
2427.94	0.0053164
2437.58	0.00588369
2447.22	0.00616106
2456.87	0.00607237
2466.51	0.0060207
2476.15	0.00626473
2485.79	0.0066302
2495.44	0.00624987
2505.08	0.00632704
2514.72	0.00644612
2524.36	0.00640938
2534.01	0.00652766
2543.65	0.00703071
2553.29	0.0066883
2562.93	0.00659558
2572.57	0.00722542
2582.22	0.00729469
2591.86	0.00729435
2601.5	0.00731825
2611.14	0.00738236
2620.79	0.00771444
2630.43	0.00781544
2640.07	0.00778295
2649.71	0.00790099
2659.36	0.00782619
2669	0.00704253
2678.64	0.00763978
2688.28	0.00753527
2697.93	0.00751143
2707.57	0.00780043
2717.21	0.00824953
2726.85	0.00819006
2736.49	0.0087528
2746.14	0.00901765
2755.78	0.00873712
2765.42	0.00921901
2775.06	0.00919059
2784.71	0.00991213
2794.35	0.0102383
2803.99	0.0102229
2813.63	0.010834
2823.28	0.0112129
2832.92	0.0118154
2842.56	0.0123726
2852.2	0.0109164
2861.84	0.0119697
2871.49	0.0132357
2881.13	0.013236
2890.77	0.0135414
2900.41	0.0143598
2910.06	0.0150595
2919.7	0.0152613
2929.34	0.0146369
2938.98	0.0138674
2948.62	0.0154453
2958.27	0.0160902
2967.91	0.0150135
2977.55	0.0142262
2987.2	0.0142838
2996.84	0.0143042
3006.48	0.0147244
3016.12	0.0151703
3025.76	0.0154214
3035.41	0.015844
3045.05	0.016465
3054.69	0.0165598
3064.33	0.0173629
3073.98	0.017425
3083.62	0.0179346
3093.26	0.0180536
3102.9	0.0187483
3112.55	0.0188571
3122.19	0.018946
3131.83	0.0196036
3141.47	0.0199497
3151.11	0.0202093
3160.76	0.0205166
3170.4	0.0212721
3180.04	0.0212746
3189.68	0.0214754
3199.33	0.0216305
3208.97	0.0220728
3218.61	0.0226023
3228.25	0.0230215
3237.9	0.022683
3247.54	0.022937
3257.18	0.0225459
3266.82	0.0232052
3276.47	0.0236138
3286.11	0.0233548
3295.75	0.0237529
3305.39	0.0243456
3315.03	0.0243875
3324.68	0.0248314
3334.32	0.0251724
3343.96	0.0256062
3353.6	0.0258067
3363.25	0.026252
3372.89	0.0268772
3382.53	0.0273115
3392.17	0.0277131
3401.82	0.0272682
3411.46	0.027018
3421.1	0.0260839
3430.74	0.0251864
3440.39	0.0250295
3450.03	0.0238407
3459.67	0.0229368
3469.31	0.0223337
3478.95	0.0213372
3488.6	0.0212393
3498.24	0.0208001
3507.88	0.0208577
3517.52	0.020539
3527.17	0.0195043
3536.81	0.019621
3546.45	0.0191729
3556.09	0.0190312
3565.74	0.0190962
3575.38	0.0179283
3585.02	0.0184337
3594.66	0.0175209
3604.3	0.0193096
3613.95	0.0206548
3623.59	0.0186443
3633.23	0.0176719
3642.87	0.0170641
3652.52	0.0161738
3662.16	0.0134223
3671.8	0.0122724
3681.44	0.0108457
3691.09	0.00931831
3700.73	0.00672689
3710.37	0.00573927
3720.01	0.00423401
3729.66	0.00362945
3739.3	0.00273864
3748.94	0.00346484
3758.58	0.00270886
3768.22	0.00247107
3777.87	0.00298556
3787.51	0.00275
3797.15	0.00254832
3806.79	0.00306257
3816.44	0.00344902
3826.08	0.00298261
3835.72	0.00302874
3845.36	0.00269854
3855.01	0.00364944
3864.65	0.0023954
3874.29	0.00309729
3883.93	0.00230406
3893.57	0.0016342
3903.22	0.00240151
3912.86	0.00248999
3922.5	0.00212418
3932.14	0.00190942
3941.79	0.00234061
3951.43	0.00264677
3961.07	0.00293571
3970.71	0.00262555
3980.36	0.00261993
3990	0.00277368
3999.64	0.00204617
