Measurement: Infrared, Infrared Data Processed
Mineral: Clinohedrite
Rruff sample: R050416
Ideal chemistry: CaZn^2+^SiO_4_H_2_O
Locality: Franklin, Sussex County, New Jersey, USA
Source: Marcus Origlieri
Description: Colorless prismatic single crystals
Measured chemistry: (Ca_0.99_Mn_0.01_)_Σ=1_Zn_1.00_Si_1.00_O_4_·H_2_O
x	intensity
399.193	0.0760147
408.835	0.0429772
418.477	0.0359182
428.12	0.0366963
437.762	0.0435349
447.404	0.0564863
457.047	0.0775975
466.689	0.0964878
476.331	0.103774
485.974	0.134028
495.616	0.205724
505.258	0.313335
514.901	0.249549
524.543	0.200262
534.185	0.226243
543.828	0.224211
553.47	0.183848
563.112	0.149738
572.755	0.167485
582.397	0.148525
592.039	0.0967545
601.682	0.0626022
611.324	0.0470855
620.966	0.0379824
630.609	0.032037
640.251	0.0305212
649.893	0.0307121
659.536	0.0332109
669.178	0.0368671
678.82	0.0394344
688.463	0.0432902
698.105	0.0491959
707.747	0.0578029
717.39	0.0707052
727.032	0.0928211
736.674	0.129441
746.317	0.150132
755.959	0.139011
765.601	0.127046
775.244	0.117219
784.886	0.14057
794.528	0.155241
804.171	0.199258
813.813	0.266076
823.455	0.352385
833.098	0.42747
842.74	0.40964
852.382	0.277645
862.025	0.293286
871.667	0.340965
881.309	0.282421
890.952	0.243182
900.594	0.247609
910.236	0.253765
919.879	0.236647
929.521	0.255037
939.163	0.262808
948.806	0.223264
958.448	0.200242
968.09	0.216961
977.733	0.169333
987.375	0.117997
997.017	0.081612
1006.66	0.0576016
1016.3	0.0430487
1025.94	0.0354629
1035.59	0.0318808
1045.23	0.0282978
1054.87	0.0254738
1064.51	0.0226563
1074.16	0.0205289
1083.8	0.017528
1093.44	0.0150281
1103.08	0.0136246
1112.72	0.0121369
1122.37	0.0105751
1132.01	0.00969604
1141.65	0.00880607
1151.3	0.00796748
1160.94	0.00773514
1170.58	0.00752274
1180.22	0.00674808
1189.86	0.00641483
1199.51	0.00582601
1209.15	0.00556575
1218.79	0.00541672
1228.43	0.0054891
1238.08	0.00574364
1247.72	0.00606762
1257.36	0.00590663
1267	0.00584818
1276.64	0.00645893
1286.29	0.00621566
1295.93	0.00587578
1305.57	0.00633597
1315.21	0.0063294
1324.86	0.0067645
1334.5	0.00740263
1344.14	0.00786558
1353.78	0.00855595
1363.43	0.0094604
1373.07	0.0101862
1382.71	0.0121631
1392.35	0.0142013
1401.99	0.0163945
1411.64	0.0177491
1421.28	0.0188033
1430.92	0.020747
1440.57	0.0217734
1450.21	0.0238724
1459.85	0.0250145
1469.49	0.0255726
1479.13	0.0263534
1488.78	0.0264242
1498.42	0.0268034
1508.06	0.0265585
1517.7	0.0267136
1527.35	0.0284165
1536.99	0.0328853
1546.63	0.0398438
1556.27	0.045541
1565.91	0.0438058
1575.56	0.0379549
1585.2	0.0341581
1594.84	0.0316169
1604.48	0.0282132
1614.13	0.0253647
1623.77	0.0225473
1633.41	0.0216406
1643.05	0.0217568
1652.7	0.0208525
1662.34	0.0215854
1671.98	0.0211806
1681.62	0.0208949
1691.27	0.0210732
1700.91	0.0201608
1710.55	0.0200731
1720.19	0.0199185
1729.84	0.0199996
1739.48	0.0180324
1749.12	0.018749
1758.76	0.0204882
1768.4	0.0215144
1778.05	0.0226618
1787.69	0.0230182
1797.33	0.0224842
1806.97	0.0232441
1816.62	0.0217324
1826.26	0.0219898
1835.9	0.0215002
1845.54	0.0206077
1855.18	0.0203816
1864.83	0.0198282
1874.47	0.0209233
1884.11	0.0198317
1893.75	0.0205968
1903.4	0.0217193
1913.04	0.0206385
1922.68	0.0193354
1932.32	0.0187951
1941.97	0.0182152
1951.61	0.0174605
1961.25	0.0167479
1970.89	0.016338
1980.54	0.0198893
1990.18	0.0213242
1999.82	0.0171608
2009.46	0.0197219
2019.11	0.0193138
2028.75	0.0225284
2038.39	0.0205899
2048.03	0.023451
2057.67	0.0200419
2067.32	0.0227026
2076.96	0.0245728
2086.6	0.0232506
2096.24	0.0243214
2105.89	0.0264866
2115.53	0.0243278
2125.17	0.0233238
2134.81	0.0219992
2144.45	0.0260253
2154.1	0.0196975
2163.74	0.0300229
2173.38	0.0235554
2183.02	0.0290465
2192.67	0.0295473
2202.31	0.0298442
2211.95	0.0295218
2221.59	0.0322246
2231.24	0.0341722
2240.88	0.0319369
2250.52	0.0373965
2260.16	0.0364555
2269.8	0.0384655
2279.45	0.039891
2289.09	0.040863
2298.73	0.0394774
2308.38	0.0390883
2318.02	0.0385318
2327.66	0.0368221
2337.3	0.0364039
2346.94	0.0345353
2356.59	0.0363399
2366.23	0.0356072
2375.87	0.034939
2385.51	0.0341472
2395.16	0.0347868
2404.8	0.0355716
2414.44	0.0356261
2424.08	0.0358699
2433.72	0.0357038
2443.37	0.0366781
2453.01	0.0374575
2462.65	0.0363574
2472.29	0.0366804
2481.94	0.0368735
2491.58	0.0381155
2501.22	0.0377603
2510.86	0.0369609
2520.51	0.0382129
2530.15	0.0388701
2539.79	0.0374042
2549.43	0.0389709
2559.07	0.0390514
2568.72	0.0413681
2578.36	0.0423757
2588	0.0442908
2597.64	0.0433987
2607.29	0.0441041
2616.93	0.0467255
2626.57	0.0479507
2636.21	0.0477268
2645.86	0.049631
2655.5	0.0509817
2665.14	0.0517535
2674.78	0.0523054
2684.43	0.0523741
2694.07	0.0548517
2703.71	0.0554678
2713.35	0.057074
2722.99	0.0586062
2732.64	0.0590882
2742.28	0.060378
2751.92	0.062663
2761.56	0.0625112
2771.21	0.063066
2780.85	0.0642908
2790.49	0.064201
2800.13	0.0663787
2809.78	0.0649716
2819.42	0.0659692
2829.06	0.0669953
2838.7	0.0657705
2848.34	0.065341
2857.99	0.0665747
2867.63	0.0670733
2877.27	0.0650573
2886.91	0.0669307
2896.56	0.0674452
2906.2	0.0641107
2915.84	0.0652679
2925.48	0.0638926
2935.13	0.0648165
2944.77	0.0647878
2954.41	0.0641792
2964.05	0.0644034
2973.7	0.0651166
2983.34	0.065939
2992.98	0.0671015
3002.62	0.0696451
3012.26	0.0689337
3021.91	0.0704027
3031.55	0.0725542
3041.19	0.0694802
3050.83	0.0731434
3060.48	0.0758645
3070.12	0.0769581
3079.76	0.0832506
3089.4	0.0875436
3099.05	0.0903304
3108.69	0.092674
3118.33	0.08904
3127.97	0.0871899
3137.61	0.0803216
3147.26	0.0740416
3156.9	0.0705852
3166.54	0.0639774
3176.18	0.0611565
3185.83	0.0605793
3195.47	0.0588472
3205.11	0.0573258
3214.75	0.0567241
3224.4	0.0547928
3234.04	0.0532329
3243.68	0.0505402
3253.32	0.0493552
3262.97	0.0500753
3272.61	0.0502096
3282.25	0.0465901
3291.89	0.0465575
3301.53	0.0451584
3311.18	0.0450701
3320.82	0.041458
3330.46	0.0399553
3340.1	0.0382164
3349.75	0.0388954
3359.39	0.0349397
3369.03	0.0352927
3378.67	0.0308638
3388.32	0.0347549
3397.96	0.0296139
3407.6	0.0301512
3417.24	0.0287596
3426.89	0.0288527
3436.53	0.0271312
3446.17	0.0250462
3455.81	0.0251168
3465.45	0.0268129
3475.1	0.0230084
3484.74	0.0214575
3494.38	0.0227481
3504.02	0.023251
3513.67	0.0213935
3523.31	0.0199982
3532.95	0.0223838
3542.59	0.0229564
3552.24	0.0203268
3561.88	0.0190834
3571.52	0.0189288
3581.16	0.0188119
3590.8	0.0197062
3600.45	0.020173
3610.09	0.0204823
3619.73	0.0170738
3629.37	0.0153866
3639.02	0.018098
3648.66	0.0165679
3658.3	0.0161705
3667.94	0.0170233
3677.59	0.0192212
3687.23	0.0172311
3696.87	0.0186521
3706.51	0.0151732
3716.16	0.013977
3725.8	0.0187615
3735.44	0.0203538
3745.08	0.0169214
3754.72	0.0169999
3764.37	0.0240796
3774.01	0.0190969
3783.65	0.0200127
3793.29	0.0149809
3802.94	0.0216317
3812.58	0.0196368
3822.22	0.0189765
3831.86	0.0209495
3841.51	0.0201105
3851.15	0.0228199
3860.79	0.018773
3870.43	0.0201511
3880.07	0.0203022
3889.72	0.0216613
3899.36	0.0222824
3909	0.0211587
3918.64	0.0219291
3928.29	0.0248979
3937.93	0.022231
3947.57	0.0226865
3957.21	0.0188279
3966.86	0.0197713
3976.5	0.020816
3986.14	0.0222363
3995.78	0.0219461
