Measurement: Infrared, Infrared Data Processed
Mineral: Clinohumite
Rruff sample: R050183
Ideal chemistry: Mg_9_(SiO_4_)_4_F_2_
Locality: Pein Pyit, Mogok, Burma
Source: Marcus Origlieri
Description: Yellowish-green blebs in calcite, associated with red spinel, R050184
Measured chemistry: (Mg_8.85_Ti_0.07_[box]_0.07_Fe_0.01_)_Σ=9_(Si_1.00_O_4_)_4_(F_1.00_(OH)_1.00_)_Σ=2_
x	intensity
50.1401	0.00171454
52.0686	0.00782658
53.9971	0.00975901
55.9255	0.0128161
57.854	0.0153627
59.7825	0.0130546
61.7109	0.0117201
63.6394	0.0164994
65.5679	0.0159422
67.4963	0.0137284
69.4248	0.0141916
71.3533	0.0165008
73.2817	0.0175955
75.2102	0.0175845
77.1387	0.0190169
79.0671	0.0197047
80.9956	0.0212254
82.9241	0.0224083
84.8525	0.022522
86.781	0.0230183
88.7095	0.0232006
90.6379	0.0234197
92.5664	0.0240101
94.4948	0.0246003
96.4233	0.025979
98.3518	0.0271912
100.28	0.027673
102.209	0.0288831
104.137	0.0302747
106.066	0.0313809
107.994	0.0314951
109.923	0.0321351
111.851	0.0329281
113.779	0.0325537
115.708	0.0323121
117.636	0.0331946
119.565	0.0341519
121.493	0.0353578
123.422	0.0372607
125.35	0.0384295
127.279	0.0392822
129.207	0.0395577
131.136	0.0401664
133.064	0.0411166
134.993	0.0419201
136.921	0.0429809
138.85	0.0432614
140.778	0.0431424
142.707	0.0434263
144.635	0.0441482
146.563	0.0452238
148.492	0.0467395
150.42	0.0474409
152.349	0.0471584
154.277	0.0473954
156.206	0.0486437
158.134	0.0501586
160.063	0.0513829
161.991	0.0521231
163.92	0.0528877
165.848	0.0538086
167.777	0.0550494
169.705	0.0560542
171.633	0.0564158
173.562	0.0546595
175.49	0.0526638
177.419	0.0529665
179.347	0.0543376
181.276	0.0556518
183.204	0.0555428
185.133	0.0545303
187.061	0.0541132
188.99	0.0545946
190.918	0.0560324
192.847	0.0578425
194.775	0.0588421
196.704	0.0586397
198.632	0.0588108
200.56	0.0597995
202.489	0.0604932
204.417	0.0607727
206.346	0.0617582
208.274	0.0623142
210.203	0.0616428
212.131	0.0618899
214.06	0.0627931
215.988	0.0635423
217.917	0.0645722
219.845	0.0655476
221.774	0.0663855
223.702	0.0673019
225.631	0.0679544
227.559	0.0685858
229.488	0.0688796
231.416	0.0696594
233.344	0.0709777
235.273	0.0720054
237.201	0.0726896
239.13	0.0729689
241.058	0.0730065
242.987	0.0731785
244.915	0.073756
246.844	0.0745371
248.772	0.0753664
250.701	0.0759597
252.629	0.0776282
254.558	0.0792003
256.486	0.0793063
258.414	0.078949
260.343	0.0793518
262.271	0.0806378
264.2	0.0813732
266.128	0.0821186
268.057	0.0832096
269.985	0.0843676
271.914	0.0856181
273.842	0.0868192
275.771	0.0876882
277.699	0.0884771
279.628	0.0894104
281.556	0.0903024
283.485	0.089957
285.413	0.0886792
287.341	0.0866895
289.27	0.0840072
291.198	0.081826
293.127	0.0811965
295.055	0.0820804
296.984	0.0839818
298.912	0.0858392
300.841	0.0872804
302.769	0.0881236
304.698	0.0873283
306.626	0.0857382
308.555	0.0847334
310.483	0.0845208
312.411	0.0848848
314.34	0.0863816
316.269	0.0879509
318.197	0.0889655
320.125	0.0902886
322.054	0.0920653
323.982	0.0937584
325.911	0.0946805
327.839	0.0953141
329.768	0.0956504
331.696	0.0961125
333.625	0.0964338
335.553	0.0965073
337.482	0.0966256
339.41	0.0968707
341.339	0.097587
343.267	0.0983288
345.195	0.0995574
347.124	0.101023
349.052	0.102686
350.981	0.104005
352.909	0.104526
354.838	0.104473
356.766	0.104212
358.695	0.103663
360.623	0.102349
362.552	0.100936
364.48	0.0988939
366.409	0.0969789
368.337	0.0968121
370.265	0.0981938
372.194	0.0996963
374.122	0.100811
376.051	0.101123
377.979	0.101196
379.908	0.101315
381.836	0.101222
383.765	0.101185
385.693	0.101514
387.622	0.101965
389.55	0.102582
391.479	0.103016
393.407	0.102925
395.336	0.102614
397.264	0.102135
399.192	0.101468
401.121	0.10115
403.049	0.101418
404.978	0.102413
406.906	0.103214
408.835	0.103287
410.763	0.10303
412.692	0.102789
414.62	0.102345
416.549	0.101967
418.477	0.101717
420.406	0.10084
422.334	0.0995215
424.262	0.0981993
426.191	0.0974975
428.12	0.0971906
430.048	0.0972491
431.976	0.0976781
433.905	0.0978557
435.833	0.0975984
437.762	0.0967019
439.69	0.0952314
441.619	0.093225
443.547	0.0912094
445.476	0.0895032
447.404	0.0881873
449.333	0.0873858
451.261	0.0873768
453.19	0.0872504
455.118	0.0866208
457.046	0.086034
458.975	0.0859003
460.903	0.0862671
462.832	0.0869147
464.76	0.0873597
466.689	0.0883158
468.617	0.089562
470.546	0.0904703
472.474	0.0911603
474.403	0.091758
476.331	0.092009
478.26	0.0921533
480.188	0.091836
482.116	0.0914087
484.045	0.0920411
485.974	0.0935603
487.902	0.0957205
489.83	0.0983554
491.759	0.100324
493.687	0.10047
495.616	0.0985256
497.544	0.096197
499.473	0.0936351
501.401	0.0908395
503.33	0.0882652
505.258	0.0865007
507.187	0.0851707
509.115	0.0839152
511.043	0.0831888
512.972	0.0828299
514.9	0.0829534
516.829	0.0845385
518.757	0.0868736
520.686	0.089037
522.614	0.0911666
524.543	0.0933086
526.471	0.0948916
528.4	0.0958558
530.328	0.0957975
532.257	0.0948651
534.185	0.0928667
536.114	0.0900204
538.042	0.086902
539.971	0.0840612
541.899	0.0812437
543.827	0.0783124
545.756	0.0758
547.684	0.0739204
549.613	0.0730286
551.541	0.0721737
553.47	0.0708458
555.398	0.0697091
557.327	0.0683608
559.255	0.0664271
561.184	0.0639057
563.112	0.0616514
565.041	0.0595748
566.969	0.0576359
568.898	0.0556544
570.826	0.0541168
572.755	0.0526059
574.683	0.0511835
576.611	0.050427
578.54	0.049314
580.468	0.0485939
582.397	0.0487394
584.325	0.048787
586.254	0.0495877
588.182	0.0505392
590.111	0.0514451
592.039	0.0526572
593.968	0.0538123
595.896	0.0556478
597.824	0.058408
599.753	0.0610674
601.682	0.0643302
603.61	0.0683604
605.538	0.0714721
607.467	0.0741688
609.395	0.0762617
611.324	0.0777502
613.252	0.0787151
615.181	0.0782754
617.109	0.0769154
619.038	0.0759373
620.966	0.0750235
622.894	0.0728377
624.823	0.0712449
626.751	0.0707042
628.68	0.0704613
630.608	0.0695653
632.537	0.0676876
634.465	0.0654288
636.394	0.0635993
638.322	0.061935
640.251	0.0601847
642.179	0.0584558
644.108	0.0571591
646.036	0.0560629
647.965	0.0549545
649.893	0.0538393
651.822	0.053052
653.75	0.0525484
655.678	0.0522557
657.607	0.0519209
659.535	0.0516179
661.464	0.0516803
663.392	0.052085
665.321	0.0523024
667.249	0.0528107
669.178	0.0532131
671.106	0.0532019
673.035	0.0533542
674.963	0.0536755
676.892	0.0540564
678.82	0.0541729
680.749	0.0538881
682.677	0.0538556
684.606	0.0540455
686.534	0.0541689
688.462	0.0540125
690.391	0.0543054
692.319	0.0547618
694.248	0.0561063
696.176	0.0573848
698.105	0.0580558
700.033	0.0573726
