Measurement: Infrared, Infrared Data Processed
Mineral: Colemanite
Rruff sample: R050331
Ideal chemistry: CaB_3_O_4_(OH)_3_H_2_O
Locality: Thompson mine, Death Valley, Inyo County, California, USA
Source: California Institute of Technology
Description: Colorless fragment
Measured chemistry: Ca_1.00_B_3.00_O_4_(OH)_3_Â·H_2_O ; B not measured but assumed by stoichiometry and charge balance.
x	intensity
399.193	0.123182
408.835	0.124414
418.477	0.131139
428.12	0.124115
437.762	0.119216
447.404	0.109849
457.047	0.105438
466.689	0.101113
476.331	0.0957699
485.974	0.102883
495.616	0.10985
505.258	0.105357
514.901	0.126843
524.543	0.0912035
534.185	0.0998928
543.828	0.107485
553.47	0.103942
563.112	0.103434
572.755	0.135363
582.397	0.159053
592.039	0.093642
601.682	0.101805
611.324	0.107046
620.966	0.120866
630.609	0.122767
640.251	0.117959
649.893	0.115588
659.536	0.123353
669.178	0.141597
678.82	0.133578
688.463	0.158522
698.105	0.160257
707.747	0.16904
717.39	0.191002
727.032	0.230667
736.674	0.186475
746.317	0.179485
755.959	0.237283
765.601	0.178959
775.244	0.124881
784.886	0.169064
794.528	0.192862
804.171	0.224429
813.813	0.244714
823.455	0.228592
833.098	0.258259
842.74	0.302137
852.382	0.333981
862.025	0.342114
871.667	0.344041
881.309	0.356234
890.952	0.350825
900.594	0.332725
910.236	0.321279
919.879	0.315465
929.521	0.308761
939.163	0.278478
948.806	0.244942
958.448	0.20595
968.09	0.16086
977.733	0.128118
987.375	0.11504
997.017	0.122153
1006.66	0.138847
1016.3	0.157801
1025.94	0.164519
1035.59	0.167216
1045.23	0.162269
1054.87	0.129669
1064.51	0.115872
1074.16	0.113166
1083.8	0.0974775
1093.44	0.0884024
1103.08	0.0936752
1112.72	0.10233
1122.37	0.105047
1132.01	0.102703
1141.65	0.09843
1151.3	0.0970179
1160.94	0.0937598
1170.58	0.0763545
1180.22	0.0586221
1189.86	0.0519398
1199.51	0.0557955
1209.15	0.070772
1218.79	0.100155
1228.43	0.126168
1238.08	0.107505
1247.72	0.100419
1257.36	0.126349
1267	0.153391
1276.64	0.154754
1286.29	0.153682
1295.93	0.158221
1305.57	0.210312
1315.21	0.262608
1324.86	0.246293
1334.5	0.230447
1344.14	0.202029
1353.78	0.232921
1363.43	0.236734
1373.07	0.184542
1382.71	0.135496
1392.35	0.0987549
1401.99	0.0709523
1411.64	0.0531374
1421.28	0.0467171
1430.92	0.0473245
1440.57	0.0385452
1450.21	0.0346969
1459.85	0.0355684
1469.49	0.0276922
1479.13	0.0194031
1488.78	0.0150175
1498.42	0.0126811
1508.06	0.0121041
1517.7	0.01156
1527.35	0.011871
1536.99	0.0120908
1546.63	0.0130979
1556.27	0.0141842
1565.91	0.014071
1575.56	0.014668
1585.2	0.0157723
1594.84	0.0169081
1604.48	0.0174134
1614.13	0.0170697
1623.77	0.0165564
1633.41	0.0167777
1643.05	0.0172008
1652.7	0.0171464
1662.34	0.0165877
1671.98	0.0166323
1681.62	0.0159978
1691.27	0.0152342
1700.91	0.0137666
1710.55	0.0106156
1720.19	0.00933628
1729.84	0.00751409
1739.48	0.00346065
1749.12	0.00295305
1758.76	0.00583768
1768.4	0.00594071
1778.05	0.00584772
1787.69	0.00521675
1797.33	0.00482922
1806.97	0.00515014
1816.62	0.00404537
1826.26	0.00452302
1835.9	0.00420028
1845.54	0.00363161
1855.18	0.00346413
1864.83	0.00427727
1874.47	0.00427154
1884.11	0.00359859
1893.75	0.00352783
1903.4	0.00390126
1913.04	0.00367975
1922.68	0.00199352
1932.32	0.00454473
1941.97	0.00127448
1951.61	0.000311612
1961.25	0.00113941
1970.89	0.000882969
1980.54	0.00163952
1990.18	0.000146405
1999.82	-0.00245968
2009.46	-0.0019575
2019.11	-0.0044
2028.75	-0.00330695
2038.39	-0.00345131
2048.03	-0.00159591
2057.67	5.2498e-06
2067.32	0.00136752
2076.96	0.00155856
2086.6	0.00314575
2096.24	0.00506994
2105.89	0.00401362
2115.53	0.00286979
2125.17	0.0033477
2134.81	0.00237102
2144.45	-0.00150202
2154.1	-0.00397741
2163.74	0.0044224
2173.38	0.000716657
2183.02	-0.000990437
2192.67	0.00176286
2202.31	0.00104304
2211.95	0.00166236
2221.59	0.000888003
2231.24	0.00314839
2240.88	0.0038966
2250.52	0.00654973
2260.16	0.00658744
2269.8	0.00495963
2279.45	0.00563015
2289.09	0.00789422
2298.73	0.00708777
2308.38	0.00713006
2318.02	0.00912592
2327.66	0.00923883
2337.3	0.0103142
2346.94	0.00895782
2356.59	0.0108598
2366.23	0.0099787
2375.87	0.00951878
2385.51	0.00910455
2395.16	0.00954294
2404.8	0.00810999
2414.44	0.009262
2424.08	0.00826286
2433.72	0.0113519
2443.37	0.00860328
2453.01	0.0107252
2462.65	0.012441
2472.29	0.0112089
2481.94	0.0124559
2491.58	0.0136438
2501.22	0.0115738
2510.86	0.0124745
2520.51	0.0128378
2530.15	0.0103648
2539.79	0.00897393
2549.43	0.00907954
2559.07	0.0118748
2568.72	0.00920563
2578.36	0.00987582
2588	0.0121884
2597.64	0.0113721
2607.29	0.00976683
2616.93	0.0103868
2626.57	0.00993371
2636.21	0.0112291
2645.86	0.0121562
2655.5	0.0123785
2665.14	0.0114683
2674.78	0.0122852
2684.43	0.0123132
2694.07	0.0131422
2703.71	0.0127386
2713.35	0.013501
2722.99	0.0140484
2732.64	0.0148142
2742.28	0.0152841
2751.92	0.0172288
2761.56	0.0179677
2771.21	0.0190932
2780.85	0.0211048
2790.49	0.0194688
2800.13	0.0223619
2809.78	0.0239249
2819.42	0.022845
2829.06	0.0253453
2838.7	0.0260839
2848.34	0.0270545
2857.99	0.0288021
2867.63	0.0307885
2877.27	0.0327089
2886.91	0.0327134
2896.56	0.0334719
2906.2	0.0346427
2915.84	0.0379421
2925.48	0.0405182
2935.13	0.0423048
2944.77	0.0456693
2954.41	0.0454805
2964.05	0.0488568
2973.7	0.0512527
2983.34	0.0517763
2992.98	0.0566997
3002.62	0.0608162
3012.26	0.0621036
3021.91	0.0649635
3031.55	0.0651215
3041.19	0.0680442
3050.83	0.0710553
3060.48	0.0752234
3070.12	0.0776293
3079.76	0.0848799
3089.4	0.0886967
3099.05	0.0919546
3108.69	0.0966155
3118.33	0.101141
3127.97	0.107583
3137.61	0.113313
3147.26	0.117009
3156.9	0.118824
3166.54	0.119759
3176.18	0.121773
3185.83	0.12394
3195.47	0.124278
3205.11	0.127458
3214.75	0.128147
3224.4	0.130269
3234.04	0.130303
3243.68	0.130844
3253.32	0.128105
3262.97	0.124499
3272.61	0.122262
3282.25	0.119447
3291.89	0.117595
3301.53	0.113151
3311.18	0.109618
3320.82	0.104232
3330.46	0.0993707
3340.1	0.0874662
3349.75	0.082515
3359.39	0.0745158
3369.03	0.0655872
3378.67	0.0617616
3388.32	0.0529371
3397.96	0.0535503
3407.6	0.0441131
3417.24	0.0444248
3426.89	0.0399526
3436.53	0.0396001
3446.17	0.0371777
3455.81	0.0358588
3465.45	0.0334667
3475.1	0.0316588
3484.74	0.0343794
3494.38	0.0316797
3504.02	0.0348169
3513.67	0.0386827
3523.31	0.0362991
3532.95	0.0377748
3542.59	0.0328922
3552.24	0.0290252
3561.88	0.0288031
3571.52	0.0267523
3581.16	0.0354125
3590.8	0.0573504
3600.45	0.0879869
3610.09	0.0530452
3619.73	0.0237783
3629.37	0.013462
3639.02	0.0124934
3648.66	0.00905984
3658.3	0.00832349
3667.94	0.00922763
3677.59	0.00836626
3687.23	0.00498985
3696.87	0.00782732
3706.51	0.00816321
3716.16	0.00827243
3725.8	0.0120629
3735.44	0.00849016
3745.08	0.00710611
3754.72	0.00662429
3764.37	0.00847228
3774.01	0.00656942
3783.65	0.00664763
3793.29	0.00579165
3802.94	0.00922191
3812.58	0.00900141
3822.22	0.0078064
3831.86	0.00830631
3841.51	0.00757725
3851.15	0.00569842
3860.79	0.00769034
3870.43	0.0102883
3880.07	0.0140377
3889.72	0.00796212
3899.36	0.00796823
3909	0.0119831
3918.64	0.0106677
3928.29	0.011672
3937.93	0.00957761
3947.57	0.0103283
3957.21	0.0107261
3966.86	0.00951579
3976.5	0.00855204
3986.14	0.0107596
3995.78	0.0137007
