Measurement: Infrared, Infrared Data Processed
Mineral: Columbite-(Fe)
Rruff sample: R070161
Ideal chemistry: Fe^2+^Nb^5+^_2_O_6_
Locality: Tveit mine, Iveland, Setesdal Valley, Aust-Agder, Norway
Source: James Shigley
Description: Black vitreous dense prismatic crystal
x	intensity
374.123	0.219337
383.765	0.221876
393.407	0.21234
403.05	0.218784
412.692	0.20774
422.334	0.21525
431.976	0.210671
441.619	0.211553
451.261	0.21096
460.904	0.208112
470.546	0.206829
480.188	0.20504
489.83	0.206066
499.473	0.207867
509.115	0.209606
518.758	0.209441
528.4	0.20935
538.042	0.20901
547.684	0.208551
557.327	0.208289
566.969	0.207305
576.611	0.204406
586.254	0.200791
595.896	0.19938
605.538	0.196383
615.181	0.191955
624.823	0.188116
634.466	0.184909
644.108	0.181114
653.75	0.17675
663.393	0.172167
673.035	0.167091
682.677	0.16137
692.319	0.155195
701.962	0.148384
711.604	0.141192
721.246	0.133451
730.889	0.125791
740.531	0.118457
750.173	0.112531
759.816	0.107207
769.458	0.102965
779.101	0.0996849
788.743	0.0968987
798.385	0.0947437
808.028	0.0924203
817.67	0.0902302
827.312	0.0878092
836.955	0.0848841
846.597	0.0812373
856.239	0.0765791
865.881	0.0714689
875.524	0.0654257
885.166	0.0598191
894.808	0.0558143
904.451	0.0521862
914.093	0.04848
923.736	0.0452949
933.378	0.0427558
943.02	0.04133
952.663	0.0401391
962.305	0.0396896
971.947	0.0389223
981.59	0.0383527
991.232	0.038058
1000.87	0.0371972
1010.52	0.0361671
1020.16	0.0353261
1029.8	0.0348557
1039.44	0.0347503
1049.09	0.0344266
1058.73	0.0333842
1068.37	0.0317853
1078.01	0.0298077
1087.65	0.0286617
1097.3	0.0287812
1106.94	0.027628
1116.58	0.0261312
1126.22	0.02554
1135.87	0.025436
1145.51	0.0255993
1155.15	0.0256124
1164.79	0.0254683
1174.44	0.0255507
1184.08	0.0260081
1193.72	0.0263853
1203.36	0.026661
1213.01	0.0270145
1222.65	0.0275556
1232.29	0.0284878
1241.93	0.0292507
1251.58	0.0300779
1261.22	0.0309707
1270.86	0.031844
1280.5	0.0325512
1290.14	0.0332489
1299.79	0.0341995
1309.43	0.0351418
1319.07	0.0361083
1328.71	0.0370786
1338.36	0.0380724
1348	0.0393061
1357.64	0.0403786
1367.28	0.0414133
1376.92	0.0425115
1386.57	0.0432256
1396.21	0.0444646
1405.85	0.0454772
1415.49	0.0464531
1425.14	0.0475638
1434.78	0.0483868
1444.42	0.0496237
1454.06	0.0502161
1463.71	0.050783
1473.35	0.0511466
1482.99	0.0527494
1492.63	0.0535937
1502.28	0.0541273
1511.92	0.0551541
1521.56	0.0553102
1531.2	0.0572968
1540.85	0.0570667
1550.49	0.0593695
1560.13	0.0589374
1569.77	0.0611156
1579.41	0.0625076
1589.06	0.0636571
1598.7	0.0647738
1608.34	0.0661606
1617.98	0.066936
1627.63	0.0681444
1637.27	0.068369
1646.91	0.0681217
1656.55	0.0684292
1666.19	0.0685413
1675.84	0.0678169
1685.48	0.0670949
1695.12	0.0676627
1704.77	0.0688491
1714.41	0.0698425
1724.05	0.0716952
1733.69	0.0706907
1743.33	0.07116
1752.98	0.0710029
1762.62	0.0716598
1772.26	0.0719063
1781.9	0.0732901
1791.55	0.0737816
1801.19	0.0747183
1810.83	0.0754456
1820.47	0.0761453
1830.12	0.0766999
1839.76	0.0777581
1849.4	0.078286
1859.04	0.0789442
1868.68	0.0795683
1878.33	0.0806509
1887.97	0.080927
1897.61	0.0820426
1907.25	0.0818822
1916.9	0.0830831
1926.54	0.0833822
1936.18	0.0838983
1945.82	0.0843332
1955.46	0.0847722
1965.11	0.0854583
1974.75	0.0845082
1984.39	0.0889833
1994.04	0.0889872
2003.68	0.0882125
2013.32	0.0898774
2022.96	0.0878881
2032.6	0.0912432
2042.25	0.0921001
2051.89	0.0926138
2061.53	0.0933415
2071.17	0.0942001
2080.82	0.0942172
2090.46	0.0941249
2100.1	0.0953759
2109.74	0.0956551
2119.39	0.0955974
2129.03	0.0941433
2138.67	0.0958108
2148.31	0.0959008
2157.95	0.0946524
2167.6	0.101203
2177.24	0.100369
2186.88	0.099472
2196.52	0.102179
2206.17	0.101295
2215.81	0.101172
2225.45	0.103227
2235.09	0.103067
2244.74	0.103535
2254.38	0.104124
2264.02	0.105656
2273.66	0.106361
2283.3	0.107621
2292.95	0.107872
2302.59	0.107644
2312.23	0.108403
2321.87	0.109607
2331.52	0.107957
2341.16	0.108511
2350.8	0.109332
2360.44	0.108602
2370.09	0.109349
2379.73	0.110566
2389.37	0.111436
2399.01	0.111816
2408.66	0.112833
2418.3	0.11358
2427.94	0.113218
2437.58	0.114433
2447.22	0.114845
2456.87	0.116114
2466.51	0.116264
2476.15	0.116492
2485.79	0.116962
2495.44	0.117237
2505.08	0.117978
2514.72	0.118733
2524.36	0.119712
2534.01	0.120191
2543.65	0.120686
2553.29	0.121396
2562.93	0.12193
2572.57	0.122919
2582.22	0.123511
2591.86	0.12385
2601.5	0.124919
2611.14	0.125459
2620.79	0.126222
2630.43	0.126911
2640.07	0.127917
2649.71	0.128087
2659.36	0.128787
2669	0.12871
2678.64	0.12933
2688.28	0.129631
2697.93	0.130066
2707.57	0.130852
2717.21	0.132123
2726.85	0.132329
2736.49	0.132761
2746.14	0.133438
2755.78	0.133463
2765.42	0.134306
2775.06	0.135322
2784.71	0.135566
2794.35	0.136308
2803.99	0.136952
2813.63	0.137785
2823.28	0.138168
2832.92	0.138837
2842.56	0.139738
2852.2	0.139946
2861.84	0.140268
2871.49	0.141297
2881.13	0.141896
2890.77	0.142547
2900.41	0.14329
2910.06	0.143354
2919.7	0.143972
2929.34	0.144531
2938.98	0.144683
2948.62	0.145419
2958.27	0.146218
2967.91	0.14606
2977.55	0.146235
2987.2	0.147216
2996.84	0.147657
3006.48	0.147472
3016.12	0.148563
3025.76	0.149587
3035.41	0.149665
3045.05	0.150138
3054.69	0.150377
3064.33	0.1508
3073.98	0.151513
3083.62	0.151432
3093.26	0.15243
3102.9	0.153248
3112.55	0.154197
3122.19	0.153854
3131.83	0.154108
3141.47	0.154588
3151.11	0.15493
3160.76	0.155249
3170.4	0.155669
3180.04	0.155444
3189.68	0.156058
3199.33	0.156682
3208.97	0.155955
3218.61	0.156939
3228.25	0.156845
3237.9	0.156647
3247.54	0.157499
3257.18	0.157809
3266.82	0.156987
3276.47	0.157678
3286.11	0.156502
3295.75	0.158004
3305.39	0.158547
3315.03	0.15747
3324.68	0.157711
3334.32	0.157869
3343.96	0.158099
3353.6	0.157915
3363.25	0.158051
3372.89	0.157073
3382.53	0.157565
3392.17	0.157557
3401.82	0.157555
3411.46	0.15605
3421.1	0.156048
3430.74	0.155281
3440.39	0.154991
3450.03	0.155141
3459.67	0.154224
3469.31	0.153877
3478.95	0.153369
3488.6	0.152662
3498.24	0.15228
3507.88	0.151201
3517.52	0.149696
3527.17	0.150236
3536.81	0.148309
3546.45	0.147262
3556.09	0.14695
3565.74	0.145692
3575.38	0.144573
3585.02	0.143423
3594.66	0.144338
3604.3	0.145216
3613.95	0.143072
3623.59	0.143916
3633.23	0.144258
3642.87	0.143433
3652.52	0.14416
3662.16	0.145266
3671.8	0.142967
3681.44	0.145355
3691.09	0.145343
3700.73	0.146323
3710.37	0.146535
3720.01	0.148312
3729.66	0.149333
3739.3	0.149698
3748.94	0.14743
3758.58	0.14966
3768.22	0.150601
3777.87	0.150008
3787.51	0.151194
3797.15	0.151318
3806.79	0.150726
3816.44	0.150941
3826.08	0.15176
3835.72	0.151134
3845.36	0.152969
3855.01	0.151245
3864.65	0.153542
3874.29	0.154758
3883.93	0.155332
3893.57	0.154347
3903.22	0.154291
3912.86	0.155951
3922.5	0.156758
3932.14	0.156336
3941.79	0.157742
3951.43	0.157258
3961.07	0.157229
3970.71	0.159006
3980.36	0.158223
3990	0.159214
3999.64	0.160598
