Measurement: Infrared, Infrared Data Processed
Mineral: Columbite-(Mn)
Rruff sample: R050359
Ideal chemistry: Mn^2+^Nb^5+^_2_O_6_
Locality: Black Hills, South Dakota, USA
Source: University of Arizona Mineral Museum
Description: Black cleavage fragment
Measured chemistry: (Mn^2+^_0.58_Fe^2+^_0.38_Ti_0.02_[box]_0.02_)(Nb_0.66_Ta_0.34_)_2_O_6_
x	intensity
399.193	0.205027
408.835	0.21011
418.477	0.214353
428.12	0.222058
437.762	0.229689
447.404	0.239104
457.047	0.235498
466.689	0.235853
476.331	0.235458
485.974	0.237488
495.616	0.235229
505.258	0.233074
514.901	0.228572
524.543	0.225679
534.185	0.225348
543.828	0.223751
553.47	0.223996
563.112	0.220591
572.755	0.215874
582.397	0.210309
592.039	0.208641
601.682	0.204927
611.324	0.201166
620.966	0.20058
630.609	0.199044
640.251	0.195161
649.893	0.192026
659.536	0.190646
669.178	0.190211
678.82	0.189145
688.463	0.187821
698.105	0.181183
707.747	0.171494
717.39	0.158263
727.032	0.144648
736.674	0.131172
746.317	0.120547
755.959	0.112703
765.601	0.107099
775.244	0.102739
784.886	0.0986098
794.528	0.0948553
804.171	0.0908633
813.813	0.0876501
823.455	0.0858958
833.098	0.0840881
842.74	0.0793177
852.382	0.0701437
862.025	0.0599172
871.667	0.0483311
881.309	0.03401
890.952	0.0231052
900.594	0.0193812
910.236	0.017982
919.879	0.0165896
929.521	0.0149637
939.163	0.0143956
948.806	0.0140191
958.448	0.0135964
968.09	0.0138109
977.733	0.0143622
987.375	0.0154839
997.017	0.0168288
1006.66	0.0187831
1016.3	0.0212845
1025.94	0.0250234
1035.59	0.0300662
1045.23	0.0354005
1054.87	0.0366984
1064.51	0.0352388
1074.16	0.0334544
1083.8	0.0322876
1093.44	0.0344411
1103.08	0.0345258
1112.72	0.0319786
1122.37	0.0285146
1132.01	0.0271651
1141.65	0.0262293
1151.3	0.02531
1160.94	0.0257757
1170.58	0.0259407
1180.22	0.0267061
1189.86	0.0273387
1199.51	0.0277024
1209.15	0.0281875
1218.79	0.0288168
1228.43	0.0291483
1238.08	0.0300221
1247.72	0.0306864
1257.36	0.0316143
1267	0.032832
1276.64	0.0342662
1286.29	0.0349584
1295.93	0.036014
1305.57	0.0371881
1315.21	0.0382697
1324.86	0.0395384
1334.5	0.0405438
1344.14	0.0419136
1353.78	0.042875
1363.43	0.0438464
1373.07	0.0452442
1382.71	0.0463952
1392.35	0.0478758
1401.99	0.0493363
1411.64	0.0508986
1421.28	0.0524412
1430.92	0.0533208
1440.57	0.0537729
1450.21	0.0548294
1459.85	0.0559506
1469.49	0.0558876
1479.13	0.0575191
1488.78	0.0586109
1498.42	0.0594076
1508.06	0.0607535
1517.7	0.0612872
1527.35	0.062184
1536.99	0.0634027
1546.63	0.0642692
1556.27	0.0653731
1565.91	0.0660288
1575.56	0.0670236
1585.2	0.0673402
1594.84	0.0687075
1604.48	0.069321
1614.13	0.0704183
1623.77	0.0714187
1633.41	0.0723898
1643.05	0.0736929
1652.7	0.0750771
1662.34	0.0745191
1671.98	0.0751872
1681.62	0.0755704
1691.27	0.0758836
1700.91	0.0771095
1710.55	0.0769556
1720.19	0.0774487
1729.84	0.0781637
1739.48	0.077277
1749.12	0.0783169
1758.76	0.0794341
1768.4	0.0813026
1778.05	0.0815247
1787.69	0.0827865
1797.33	0.0836954
1806.97	0.0845446
1816.62	0.0853869
1826.26	0.087284
1835.9	0.0872602
1845.54	0.0874524
1855.18	0.0882879
1864.83	0.0891524
1874.47	0.0898713
1884.11	0.0913021
1893.75	0.0908866
1903.4	0.0919547
1913.04	0.0932943
1922.68	0.092739
1932.32	0.0943742
1941.97	0.0941741
1951.61	0.09508
1961.25	0.0947491
1970.89	0.0976965
1980.54	0.0989175
1990.18	0.100133
1999.82	0.101804
2009.46	0.100757
2019.11	0.0978259
2028.75	0.101467
2038.39	0.10025
2048.03	0.10336
2057.67	0.105085
2067.32	0.101805
2076.96	0.103439
2086.6	0.103486
2096.24	0.103673
2105.89	0.106498
2115.53	0.106209
2125.17	0.106876
2134.81	0.103561
2144.45	0.10342
2154.1	0.101242
2163.74	0.103878
2173.38	0.10749
2183.02	0.110042
2192.67	0.109166
2202.31	0.111033
2211.95	0.110143
2221.59	0.110179
2231.24	0.112158
2240.88	0.112915
2250.52	0.114091
2260.16	0.115074
2269.8	0.117167
2279.45	0.114164
2289.09	0.115362
2298.73	0.117231
2308.38	0.118033
2318.02	0.118203
2327.66	0.118586
2337.3	0.119197
2346.94	0.119017
2356.59	0.120246
2366.23	0.119697
2375.87	0.120355
2385.51	0.118024
2395.16	0.119921
2404.8	0.121172
2414.44	0.121114
2424.08	0.121349
2433.72	0.121916
2443.37	0.123924
2453.01	0.124815
2462.65	0.124101
2472.29	0.124608
2481.94	0.125752
2491.58	0.125122
2501.22	0.126069
2510.86	0.126045
2520.51	0.12655
2530.15	0.126623
2539.79	0.12843
2549.43	0.12723
2559.07	0.129383
2568.72	0.12859
2578.36	0.131433
2588	0.128925
2597.64	0.129753
2607.29	0.132151
2616.93	0.13228
2626.57	0.132493
2636.21	0.131456
2645.86	0.132083
2655.5	0.132632
2665.14	0.132233
2674.78	0.132637
2684.43	0.133924
2694.07	0.132412
2703.71	0.1334
2713.35	0.134382
2722.99	0.135508
2732.64	0.135407
2742.28	0.136658
2751.92	0.136032
2761.56	0.136551
2771.21	0.137355
2780.85	0.13783
2790.49	0.138191
2800.13	0.140105
2809.78	0.138203
2819.42	0.138825
2829.06	0.139836
2838.7	0.138521
2848.34	0.135685
2857.99	0.136645
2867.63	0.138151
2877.27	0.139644
2886.91	0.139726
2896.56	0.14045
2906.2	0.139783
2915.84	0.137252
2925.48	0.133864
2935.13	0.137474
2944.77	0.139842
2954.41	0.139663
2964.05	0.142223
2973.7	0.143557
2983.34	0.143749
2992.98	0.141875
3002.62	0.145263
3012.26	0.144318
3021.91	0.14364
3031.55	0.14594
3041.19	0.147351
3050.83	0.146356
3060.48	0.146582
3070.12	0.148482
3079.76	0.149038
3089.4	0.149061
3099.05	0.147818
3108.69	0.152138
3118.33	0.152289
3127.97	0.149738
3137.61	0.150829
3147.26	0.147951
3156.9	0.151187
3166.54	0.150963
3176.18	0.152558
3185.83	0.153102
3195.47	0.154632
3205.11	0.154277
3214.75	0.15435
3224.4	0.154678
3234.04	0.153732
3243.68	0.153868
3253.32	0.155895
3262.97	0.152649
3272.61	0.155078
3282.25	0.155361
3291.89	0.15583
3301.53	0.15651
3311.18	0.157843
3320.82	0.154458
3330.46	0.157251
3340.1	0.157115
3349.75	0.156269
3359.39	0.158651
3369.03	0.155441
3378.67	0.159683
3388.32	0.157148
3397.96	0.160433
3407.6	0.156966
3417.24	0.161658
3426.89	0.158714
3436.53	0.156304
3446.17	0.159881
3455.81	0.158638
3465.45	0.160852
3475.1	0.158134
3484.74	0.158547
3494.38	0.159889
3504.02	0.158132
3513.67	0.158177
3523.31	0.158661
3532.95	0.157358
3542.59	0.157912
3552.24	0.158857
3561.88	0.156255
3571.52	0.155012
3581.16	0.154597
3590.8	0.158031
3600.45	0.160361
3610.09	0.157976
3619.73	0.15565
3629.37	0.15909
3639.02	0.156537
3648.66	0.155718
3658.3	0.155363
3667.94	0.156216
3677.59	0.158095
3687.23	0.163605
3696.87	0.156363
3706.51	0.161656
3716.16	0.160874
3725.8	0.167699
3735.44	0.162449
3745.08	0.166785
3754.72	0.16157
3764.37	0.161812
3774.01	0.156227
3783.65	0.163869
3793.29	0.160724
3802.94	0.167171
3812.58	0.164281
3822.22	0.167825
3831.86	0.168468
3841.51	0.168812
3851.15	0.164666
3860.79	0.166674
3870.43	0.168061
3880.07	0.166944
3889.72	0.163773
3899.36	0.16744
3909	0.160378
3918.64	0.167704
3928.29	0.16379
3937.93	0.167631
3947.57	0.167966
3957.21	0.163665
3966.86	0.168084
3976.5	0.16653
3986.14	0.164372
3995.78	0.166443
