Measurement: Infrared, Infrared Data Processed
Mineral: Columbite-(Fe)
Rruff sample: R050348
Ideal chemistry: Fe^2+^Nb^5+^_2_O_6_
Locality: Lord Hill mine, Stoneham, Oxford County, Maine, USA
Source: California Institute of Technology
Description: Black fragment
Measured chemistry: (Fe^2+^_0.69_Mn^2+^_0.30_Ti_0.01_)(Nb_0.89_Ta_0.10_Ti_0.01_)_2_O_6_
x	intensity
399.193	0.34077
408.835	0.350457
418.477	0.366707
428.12	0.382587
437.762	0.383086
447.404	0.383655
457.047	0.379248
466.689	0.366273
476.331	0.357839
485.974	0.353664
495.616	0.349152
505.258	0.343589
514.901	0.33534
524.543	0.32958
534.185	0.322637
543.828	0.320356
553.47	0.318339
563.112	0.313116
572.755	0.305225
582.397	0.301841
592.039	0.297267
601.682	0.294886
611.324	0.293272
620.966	0.289718
630.609	0.285385
640.251	0.282048
649.893	0.279782
659.536	0.278445
669.178	0.277263
678.82	0.272331
688.463	0.265802
698.105	0.250002
707.747	0.232208
717.39	0.215155
727.032	0.198426
736.674	0.184469
746.317	0.174502
755.959	0.167129
765.601	0.163324
775.244	0.162566
784.886	0.155154
794.528	0.151031
804.171	0.140948
813.813	0.130873
823.455	0.127158
833.098	0.122223
842.74	0.112579
852.382	0.0994689
862.025	0.0868802
871.667	0.0692045
881.309	0.0507652
890.952	0.040845
900.594	0.0382761
910.236	0.0368539
919.879	0.0355366
929.521	0.0341117
939.163	0.0338254
948.806	0.0340988
958.448	0.0350552
968.09	0.0376015
977.733	0.040323
987.375	0.0436485
997.017	0.0468384
1006.66	0.051339
1016.3	0.055383
1025.94	0.0604241
1035.59	0.0658745
1045.23	0.0697719
1054.87	0.0736766
1064.51	0.0733726
1074.16	0.0758388
1083.8	0.0858232
1093.44	0.0913659
1103.08	0.0874581
1112.72	0.080255
1122.37	0.0728221
1132.01	0.067852
1141.65	0.0642331
1151.3	0.0605294
1160.94	0.0608152
1170.58	0.0591498
1180.22	0.0573682
1189.86	0.0553624
1199.51	0.0510291
1209.15	0.0459903
1218.79	0.0425808
1228.43	0.0415861
1238.08	0.0418128
1247.72	0.0421204
1257.36	0.0423786
1267	0.0431673
1276.64	0.0444628
1286.29	0.0454709
1295.93	0.0464425
1305.57	0.0475494
1315.21	0.0489509
1324.86	0.0501976
1334.5	0.0513895
1344.14	0.0530848
1353.78	0.0540244
1363.43	0.0555987
1373.07	0.0572732
1382.71	0.0587962
1392.35	0.0604448
1401.99	0.0614702
1411.64	0.0629193
1421.28	0.0648071
1430.92	0.0660235
1440.57	0.0672776
1450.21	0.0687517
1459.85	0.0697505
1469.49	0.0700891
1479.13	0.0712601
1488.78	0.0724621
1498.42	0.0737452
1508.06	0.0751605
1517.7	0.0770575
1527.35	0.0794425
1536.99	0.0813449
1546.63	0.0831855
1556.27	0.0852752
1565.91	0.0872194
1575.56	0.088771
1585.2	0.0906074
1594.84	0.0918815
1604.48	0.0932287
1614.13	0.0945213
1623.77	0.0957242
1633.41	0.0969795
1643.05	0.097678
1652.7	0.0987046
1662.34	0.0990728
1671.98	0.100178
1681.62	0.100495
1691.27	0.101129
1700.91	0.100822
1710.55	0.101402
1720.19	0.102811
1729.84	0.10393
1739.48	0.104735
1749.12	0.104952
1758.76	0.106275
1768.4	0.108262
1778.05	0.109429
1787.69	0.110792
1797.33	0.11226
1806.97	0.113667
1816.62	0.115281
1826.26	0.116764
1835.9	0.117765
1845.54	0.119283
1855.18	0.120795
1864.83	0.122444
1874.47	0.124419
1884.11	0.126264
1893.75	0.127802
1903.4	0.128441
1913.04	0.130129
1922.68	0.129397
1932.32	0.134425
1941.97	0.135017
1951.61	0.134623
1961.25	0.134575
1970.89	0.137599
1980.54	0.143015
1990.18	0.140909
1999.82	0.141039
2009.46	0.142681
2019.11	0.140803
2028.75	0.14462
2038.39	0.146333
2048.03	0.145218
2057.67	0.14855
2067.32	0.14617
2076.96	0.147334
2086.6	0.148439
2096.24	0.150167
2105.89	0.15132
2115.53	0.151021
2125.17	0.152931
2134.81	0.151274
2144.45	0.152561
2154.1	0.156092
2163.74	0.162252
2173.38	0.158517
2183.02	0.161104
2192.67	0.161726
2202.31	0.161759
2211.95	0.164979
2221.59	0.164281
2231.24	0.165903
2240.88	0.168006
2250.52	0.168599
2260.16	0.168334
2269.8	0.169608
2279.45	0.17092
2289.09	0.170744
2298.73	0.171991
2308.38	0.173411
2318.02	0.174497
2327.66	0.17544
2337.3	0.177669
2346.94	0.176719
2356.59	0.178986
2366.23	0.179631
2375.87	0.177751
2385.51	0.179561
2395.16	0.1814
2404.8	0.181192
2414.44	0.182999
2424.08	0.183375
2433.72	0.184421
2443.37	0.188379
2453.01	0.188403
2462.65	0.187597
2472.29	0.190589
2481.94	0.19007
2491.58	0.19116
2501.22	0.191498
2510.86	0.193003
2520.51	0.194915
2530.15	0.195614
2539.79	0.194939
2549.43	0.197079
2559.07	0.196516
2568.72	0.197824
2578.36	0.199666
2588	0.199969
2597.64	0.199687
2607.29	0.202129
2616.93	0.202502
2626.57	0.203608
2636.21	0.206021
2645.86	0.205154
2655.5	0.205206
2665.14	0.205175
2674.78	0.20641
2684.43	0.206882
2694.07	0.208075
2703.71	0.208845
2713.35	0.210866
2722.99	0.210952
2732.64	0.210817
2742.28	0.213505
2751.92	0.213931
2761.56	0.214375
2771.21	0.216682
2780.85	0.217548
2790.49	0.217997
2800.13	0.218186
2809.78	0.220206
2819.42	0.221162
2829.06	0.221393
2838.7	0.224188
2848.34	0.225822
2857.99	0.223697
2867.63	0.225071
2877.27	0.225806
2886.91	0.227963
2896.56	0.22794
2906.2	0.229845
2915.84	0.231639
2925.48	0.22978
2935.13	0.226244
2944.77	0.228492
2954.41	0.230959
2964.05	0.232689
2973.7	0.229194
2983.34	0.232733
2992.98	0.232315
3002.62	0.23178
3012.26	0.233349
3021.91	0.236605
3031.55	0.236524
3041.19	0.238433
3050.83	0.240406
3060.48	0.239884
3070.12	0.240632
3079.76	0.244325
3089.4	0.243754
3099.05	0.241786
3108.69	0.245266
3118.33	0.248783
3127.97	0.245946
3137.61	0.246854
3147.26	0.249386
3156.9	0.251823
3166.54	0.250742
3176.18	0.25037
3185.83	0.253247
3195.47	0.25329
3205.11	0.256393
3214.75	0.25588
3224.4	0.256836
3234.04	0.257995
3243.68	0.257997
3253.32	0.257693
3262.97	0.261991
3272.61	0.260376
3282.25	0.260332
3291.89	0.260366
3301.53	0.261348
3311.18	0.263425
3320.82	0.261445
3330.46	0.262816
3340.1	0.263418
3349.75	0.263715
3359.39	0.265312
3369.03	0.264343
3378.67	0.267962
3388.32	0.266831
3397.96	0.263817
3407.6	0.268319
3417.24	0.26562
3426.89	0.267103
3436.53	0.268762
3446.17	0.267186
3455.81	0.271582
3465.45	0.26912
3475.1	0.272423
3484.74	0.270031
3494.38	0.268471
3504.02	0.266702
3513.67	0.266116
3523.31	0.2685
3532.95	0.270217
3542.59	0.274608
3552.24	0.268318
3561.88	0.268568
3571.52	0.272593
3581.16	0.275289
3590.8	0.269053
3600.45	0.271661
3610.09	0.271859
3619.73	0.266726
3629.37	0.267639
3639.02	0.274534
3648.66	0.270758
3658.3	0.268281
3667.94	0.274672
3677.59	0.274048
3687.23	0.273265
3696.87	0.275614
3706.51	0.277297
3716.16	0.275737
3725.8	0.277959
3735.44	0.275769
3745.08	0.275215
3754.72	0.275726
3764.37	0.280752
3774.01	0.283631
3783.65	0.281111
3793.29	0.282678
3802.94	0.280773
3812.58	0.284967
3822.22	0.285585
3831.86	0.289187
3841.51	0.282946
3851.15	0.282867
3860.79	0.286546
3870.43	0.288044
3880.07	0.284213
3889.72	0.285601
3899.36	0.291386
3909	0.288135
3918.64	0.293225
3928.29	0.290248
3937.93	0.295156
3947.57	0.296406
3957.21	0.299643
3966.86	0.292229
3976.5	0.300988
3986.14	0.292581
3995.78	0.298894
