Measurement: Infrared, Infrared Data Processed
Mineral: Conichalcite
Rruff sample: R050028
Ideal chemistry: CaCu^2+^As^5+^O_4_(OH)
Locality: Mapimi, Durango, Mexico
Source: Eugene Schlepp
Description: Green botryoidal groups covering adamite
Measured chemistry: Ca_1.00_(Cu_0.70_Zn_0.30_)_Î£=1_(As_1.00_O_4_)(OH)
x	intensity
399.193	0
408.835	0.191615
418.477	0.18427
428.12	0.183491
437.762	0.181021
447.404	0.180507
457.047	0.177096
466.689	0.166797
476.331	0.142322
485.974	0.131913
495.616	0.132468
505.258	0.140781
514.901	0.157881
524.543	0.167632
534.185	0.158317
543.828	0.141113
553.47	0.133143
563.112	0.13838
572.755	0.127387
582.397	0.10421
592.039	0.0939801
601.682	0.088976
611.324	0.0860886
620.966	0.082913
630.609	0.0790405
640.251	0.0745253
649.893	0.0700728
659.536	0.0661395
669.178	0.0649228
678.82	0.0644961
688.463	0.0646389
698.105	0.0668725
707.747	0.0719687
717.39	0.0796313
727.032	0.0932667
736.674	0.110745
746.317	0.134993
755.959	0.176442
765.601	0.229331
775.244	0.264889
784.886	0.281021
794.528	0.28141
804.171	0.264043
813.813	0.249287
823.455	0.225503
833.098	0.217173
842.74	0.208007
852.382	0.156904
862.025	0.11277
871.667	0.0841467
881.309	0.0798389
890.952	0.0778903
900.594	0.0721698
910.236	0.0649784
919.879	0.0597643
929.521	0.056585
939.163	0.0498574
948.806	0.0415569
958.448	0.0346079
968.09	0.0334766
977.733	0.0330107
987.375	0.0324226
997.017	0.0323999
1006.66	0.0333851
1016.3	0.0350472
1025.94	0.0364896
1035.59	0.0386973
1045.23	0.0386186
1054.87	0.0411516
1064.51	0.037335
1074.16	0.0280534
1083.8	0.0238968
1093.44	0.0221536
1103.08	0.0213375
1112.72	0.0213475
1122.37	0.0211215
1132.01	0.0209854
1141.65	0.021053
1151.3	0.0211331
1160.94	0.0208084
1170.58	0.0208146
1180.22	0.021072
1189.86	0.0210934
1199.51	0.0215729
1209.15	0.021883
1218.79	0.0222459
1228.43	0.0226526
1238.08	0.0231502
1247.72	0.0243889
1257.36	0.0247151
1267	0.0249189
1276.64	0.0261901
1286.29	0.0264937
1295.93	0.0275329
1305.57	0.0283377
1315.21	0.0297143
1324.86	0.030391
1334.5	0.0315664
1344.14	0.0329327
1353.78	0.0355178
1363.43	0.0380045
1373.07	0.0393485
1382.71	0.0412984
1392.35	0.0428897
1401.99	0.0443438
1411.64	0.0449941
1421.28	0.0452945
1430.92	0.0454204
1440.57	0.0477519
1450.21	0.0496306
1459.85	0.0474381
1469.49	0.0437264
1479.13	0.0422228
1488.78	0.0411393
1498.42	0.0401258
1508.06	0.0400083
1517.7	0.0398589
1527.35	0.0402149
1536.99	0.0404318
1546.63	0.0417628
1556.27	0.0424285
1565.91	0.0436395
1575.56	0.0438467
1585.2	0.0450461
1594.84	0.0451844
1604.48	0.0453322
1614.13	0.0449085
1623.77	0.0453933
1633.41	0.0447604
1643.05	0.0449638
1652.7	0.0442802
1662.34	0.0448908
1671.98	0.0443681
1681.62	0.0437782
1691.27	0.0445032
1700.91	0.044636
1710.55	0.0443609
1720.19	0.0449589
1729.84	0.0445537
1739.48	0.0435765
1749.12	0.0445359
1758.76	0.0457693
1768.4	0.0464731
1778.05	0.0474555
1787.69	0.048236
1797.33	0.0489402
1806.97	0.0488727
1816.62	0.0493346
1826.26	0.0502071
1835.9	0.0499683
1845.54	0.0503361
1855.18	0.0495307
1864.83	0.0487576
1874.47	0.0492602
1884.11	0.048171
1893.75	0.0495299
1903.4	0.0495177
1913.04	0.051161
1922.68	0.0511112
1932.32	0.0511224
1941.97	0.0513479
1951.61	0.0518035
1961.25	0.0507093
1970.89	0.0517435
1980.54	0.0532204
1990.18	0.0540481
1999.82	0.0517929
2009.46	0.0538413
2019.11	0.0517707
2028.75	0.0561987
2038.39	0.0539091
2048.03	0.0587454
2057.67	0.0568909
2067.32	0.0563141
2076.96	0.0593961
2086.6	0.0575164
2096.24	0.0566526
2105.89	0.0560787
2115.53	0.0567662
2125.17	0.0555625
2134.81	0.0556847
2144.45	0.0575871
2154.1	0.0543706
2163.74	0.0635668
2173.38	0.0592422
2183.02	0.0600041
2192.67	0.0613124
2202.31	0.0618363
2211.95	0.0605607
2221.59	0.0640532
2231.24	0.061545
2240.88	0.0620843
2250.52	0.0618715
2260.16	0.0636965
2269.8	0.0622348
2279.45	0.0647263
2289.09	0.0641107
2298.73	0.0637886
2308.38	0.0652744
2318.02	0.0658166
2327.66	0.0663194
2337.3	0.0656311
2346.94	0.0664967
2356.59	0.0666388
2366.23	0.0661781
2375.87	0.0663083
2385.51	0.0668111
2395.16	0.0672014
2404.8	0.0681127
2414.44	0.0678731
2424.08	0.0683717
2433.72	0.0691415
2443.37	0.0703943
2453.01	0.0708136
2462.65	0.0711997
2472.29	0.0696816
2481.94	0.070748
2491.58	0.0724046
2501.22	0.0732762
2510.86	0.0744687
2520.51	0.0730196
2530.15	0.0749923
2539.79	0.0759277
2549.43	0.0749408
2559.07	0.0750934
2568.72	0.0753878
2578.36	0.0758704
2588	0.076343
2597.64	0.0775147
2607.29	0.0783809
2616.93	0.0790977
2626.57	0.0785412
2636.21	0.0803482
2645.86	0.0815118
2655.5	0.0799901
2665.14	0.0804045
2674.78	0.0812856
2684.43	0.0819249
2694.07	0.0820185
2703.71	0.0831032
2713.35	0.0834537
2722.99	0.0838034
2732.64	0.0843551
2742.28	0.0843732
2751.92	0.0868692
2761.56	0.0877326
2771.21	0.0875348
2780.85	0.089442
2790.49	0.0888452
2800.13	0.0914891
2809.78	0.0914231
2819.42	0.0926187
2829.06	0.0933428
2838.7	0.0948924
2848.34	0.0956293
2857.99	0.0953141
2867.63	0.0973486
2877.27	0.099915
2886.91	0.100285
2896.56	0.101587
2906.2	0.102046
2915.84	0.101902
2925.48	0.103511
2935.13	0.103924
2944.77	0.105764
2954.41	0.10708
2964.05	0.107695
2973.7	0.109817
2983.34	0.112147
2992.98	0.112129
3002.62	0.113782
3012.26	0.115995
3021.91	0.118557
3031.55	0.12055
3041.19	0.122609
3050.83	0.125169
3060.48	0.127021
3070.12	0.130922
3079.76	0.133267
3089.4	0.136586
3099.05	0.140032
3108.69	0.142808
3118.33	0.147973
3127.97	0.15077
3137.61	0.157556
3147.26	0.156673
3156.9	0.161199
3166.54	0.161038
3176.18	0.157814
3185.83	0.156251
3195.47	0.155204
3205.11	0.150428
3214.75	0.148686
3224.4	0.145443
3234.04	0.141597
3243.68	0.135563
3253.32	0.134751
3262.97	0.130199
3272.61	0.126066
3282.25	0.122692
3291.89	0.118081
3301.53	0.115787
3311.18	0.112356
3320.82	0.113052
3330.46	0.109545
3340.1	0.108128
3349.75	0.106764
3359.39	0.10704
3369.03	0.10618
3378.67	0.104605
3388.32	0.104036
3397.96	0.103421
3407.6	0.101864
3417.24	0.102717
3426.89	0.101051
3436.53	0.101267
3446.17	0.0999479
3455.81	0.100276
3465.45	0.101533
3475.1	0.101883
3484.74	0.10372
3494.38	0.101619
3504.02	0.103928
3513.67	0.103229
3523.31	0.100441
3532.95	0.101826
3542.59	0.107802
3552.24	0.102144
3561.88	0.0938879
3571.52	0.0926917
3581.16	0.0885169
3590.8	0.0906214
3600.45	0.0915372
3610.09	0.09114
3619.73	0.0910818
3629.37	0.0917917
3639.02	0.0887152
3648.66	0.0922607
3658.3	0.0929378
3667.94	0.0876374
3677.59	0.0918563
3687.23	0.0941146
3696.87	0.0984454
3706.51	0.0907553
3716.16	0.0967085
3725.8	0.0951071
3735.44	0.0936283
3745.08	0.0980086
3754.72	0.0989966
3764.37	0.0946333
3774.01	0.0954335
3783.65	0.105285
3793.29	0.101523
3802.94	0.102165
3812.58	0.101346
3822.22	0.102982
3831.86	0.0981594
3841.51	0.108134
3851.15	0.101384
3860.79	0.105843
3870.43	0.102006
3880.07	0.107508
3889.72	0.114579
3899.36	0.104096
3909	0.105095
3918.64	0.108473
3928.29	0.107397
3937.93	0.107104
3947.57	0.109582
3957.21	0.114188
3966.86	0.106276
3976.5	0.109158
3986.14	0.107762
3995.78	0.110308
