Measurement: Infrared, Infrared Data Processed
Mineral: Cordierite
Rruff sample: R040081
Ideal chemistry: Mg_2_Al_3_(AlSi_5_)O_18_
Locality: Laramie Range, Wyoming, USA
Source: University of Arizona Mineral Museum
Description: Blue to purple coarsely crystalline
Measured chemistry: (Mg_1.80_Fe^2+^_0.20_)_Σ=2_Al_4.00_(Si_4.96_Al_0.04_)_Σ=5_O_18_·0.86H_2_O·Na_0.04_ ; H_2_O estimated by difference and verified by Raman spectroscopy
x	intensity
399.193	0
408.835	0.200683
418.477	0.20854
428.12	0.159519
437.762	0.191029
447.404	0.166643
457.047	0.127145
466.689	0.124434
476.331	0.146936
485.974	0.134251
495.616	0.0770191
505.258	0.0438221
514.901	0.0266652
524.543	0.024821
534.185	0.0250572
543.828	0.0285136
553.47	0.0414298
563.112	0.0865192
572.755	0.0949909
582.397	0.106697
592.039	0.0618321
601.682	0.0582684
611.324	0.0791539
620.966	0.0825724
630.609	0.0515732
640.251	0.0392289
649.893	0.0419139
659.536	0.0472947
669.178	0.0661201
678.82	0.0718805
688.463	0.0499018
698.105	0.0556011
707.747	0.0623396
717.39	0.0668078
727.032	0.0859218
736.674	0.122024
746.317	0.165199
755.959	0.18294
765.601	0.229497
775.244	0.170425
784.886	0.103665
794.528	0.0623499
804.171	0.050334
813.813	0.051498
823.455	0.0596415
833.098	0.0656028
842.74	0.0764429
852.382	0.093534
862.025	0.116875
871.667	0.147556
881.309	0.184815
890.952	0.231521
900.594	0.271715
910.236	0.247015
919.879	0.204782
929.521	0.258485
939.163	0.309923
948.806	0.31287
958.448	0.285673
968.09	0.227393
977.733	0.176722
987.375	0.1308
997.017	0.0950727
1006.66	0.0793707
1016.3	0.0782358
1025.94	0.0864037
1035.59	0.0529232
1045.23	0.0416355
1054.87	0.0368885
1064.51	0.0359667
1074.16	0.0379451
1083.8	0.0438092
1093.44	0.0493359
1103.08	0.0546554
1112.72	0.0710776
1122.37	0.0991547
1132.01	0.127966
1141.65	0.146039
1151.3	0.138989
1160.94	0.163329
1170.58	0.174014
1180.22	0.156409
1189.86	0.11395
1199.51	0.0807939
1209.15	0.0539885
1218.79	0.033441
1228.43	0.0164624
1238.08	0.00964735
1247.72	0.00746874
1257.36	0.00605839
1267	0.00519352
1276.64	0.00468019
1286.29	0.00427925
1295.93	0.00411348
1305.57	0.00399548
1315.21	0.00352175
1324.86	0.00361413
1334.5	0.00363604
1344.14	0.00374245
1353.78	0.0037968
1363.43	0.00374108
1373.07	0.00389206
1382.71	0.00344578
1392.35	0.00349886
1401.99	0.00365274
1411.64	0.00357256
1421.28	0.0036152
1430.92	0.00324113
1440.57	0.00332977
1450.21	0.00337534
1459.85	0.00345687
1469.49	0.00373733
1479.13	0.00324512
1488.78	0.00308811
1498.42	0.0029213
1508.06	0.00289831
1517.7	0.00285677
1527.35	0.00293682
1536.99	0.00304516
1546.63	0.00357007
1556.27	0.00436158
1565.91	0.00494602
1575.56	0.00519087
1585.2	0.0057638
1594.84	0.00593402
1604.48	0.00564861
1614.13	0.00575431
1623.77	0.00601951
1633.41	0.00695938
1643.05	0.00572511
1652.7	0.00441119
1662.34	0.0042752
1671.98	0.00407548
1681.62	0.00392244
1691.27	0.00386647
1700.91	0.00353992
1710.55	0.00307546
1720.19	0.00359715
1729.84	0.00304991
1739.48	0.00267809
1749.12	0.00267693
1758.76	0.00270827
1768.4	0.00239974
1778.05	0.00207788
1787.69	0.00197315
1797.33	0.00201202
1806.97	0.00187322
1816.62	0.00129972
1826.26	0.00180187
1835.9	0.00272314
1845.54	0.00150339
1855.18	0.0011829
1864.83	0.00135189
1874.47	0.000635857
1884.11	0.00122343
1893.75	0.000120596
1903.4	0.000368565
1913.04	0.000447634
1922.68	-0.000533082
1932.32	-0.000632436
1941.97	-0.000964658
1951.61	-0.00124508
1961.25	-0.00045976
1970.89	-0.00153604
1980.54	0.00142727
1990.18	0.00115689
1999.82	-0.000194577
2009.46	0.00218275
2019.11	-0.00129406
2028.75	0.000981036
2038.39	0.0023012
2048.03	0.0027061
2057.67	0.00156127
2067.32	0.00292877
2076.96	0.00226125
2086.6	0.00287469
2096.24	0.00441352
2105.89	0.0030604
2115.53	0.00369193
2125.17	0.00148501
2134.81	-0.000484863
2144.45	0.00186937
2154.1	0.000319946
2163.74	0.00589392
2173.38	0.0025047
2183.02	0.0029494
2192.67	0.00217474
2202.31	0.00404284
2211.95	0.00223552
2221.59	0.0037634
2231.24	0.00326772
2240.88	0.00414603
2250.52	0.00263193
2260.16	0.00139498
2269.8	0.00297879
2279.45	0.00297051
2289.09	0.00315063
2298.73	0.00407989
2308.38	0.0041052
2318.02	0.00473686
2327.66	0.00379459
2337.3	0.00526876
2346.94	0.0205856
2356.59	0.00381607
2366.23	0.00257773
2375.87	0.00284007
2385.51	0.00247238
2395.16	0.00275714
2404.8	0.00280626
2414.44	0.00483453
2424.08	0.00384754
2433.72	0.00506321
2443.37	0.00532188
2453.01	0.00512627
2462.65	0.00514871
2472.29	0.00510713
2481.94	0.00481756
2491.58	0.00626711
2501.22	0.00561013
2510.86	0.00520317
2520.51	0.00624259
2530.15	0.00492729
2539.79	0.00581074
2549.43	0.00620336
2559.07	0.00609721
2568.72	0.0064415
2578.36	0.00522705
2588	0.00613129
2597.64	0.00688321
2607.29	0.00587282
2616.93	0.00685954
2626.57	0.00776412
2636.21	0.00692159
2645.86	0.00687961
2655.5	0.00654873
2665.14	0.00592091
2674.78	0.0058528
2684.43	0.00634001
2694.07	0.00592002
2703.71	0.00654697
2713.35	0.00629497
2722.99	0.00617239
2732.64	0.00581622
2742.28	0.00665551
2751.92	0.00662032
2761.56	0.00643541
2771.21	0.00659137
2780.85	0.00661161
2790.49	0.00636273
2800.13	0.00631522
2809.78	0.00715385
2819.42	0.00792802
2829.06	0.00655789
2838.7	0.00706146
2848.34	0.00618726
2857.99	0.00585726
2867.63	0.00555878
2877.27	0.00595349
2886.91	0.00685172
2896.56	0.0064301
2906.2	0.00677927
2915.84	0.00617424
2925.48	0.00453154
2935.13	0.00557071
2944.77	0.00649808
2954.41	0.00629278
2964.05	0.00695103
2973.7	0.00700921
2983.34	0.00728768
2992.98	0.00791253
3002.62	0.00838983
3012.26	0.008008
3021.91	0.00821114
3031.55	0.0075902
3041.19	0.00808265
3050.83	0.0081632
3060.48	0.00795271
3070.12	0.00875175
3079.76	0.0088196
3089.4	0.00873212
3099.05	0.00885497
3108.69	0.00939502
3118.33	0.00919361
3127.97	0.0110233
3137.61	0.00773004
3147.26	0.0102289
3156.9	0.00981512
3166.54	0.00937704
3176.18	0.0106584
3185.83	0.00980235
3195.47	0.010686
3205.11	0.010841
3214.75	0.0093526
3224.4	0.0122453
3234.04	0.0100636
3243.68	0.011456
3253.32	0.00885429
3262.97	0.0122237
3272.61	0.00984941
3282.25	0.0107864
3291.89	0.0108974
3301.53	0.0101242
3311.18	0.0121935
3320.82	0.0110024
3330.46	0.011408
3340.1	0.0109259
3349.75	0.0102164
3359.39	0.0118655
3369.03	0.0121633
3378.67	0.0105681
3388.32	0.0110327
3397.96	0.0118468
3407.6	0.0115857
3417.24	0.0132613
3426.89	0.0119942
3436.53	0.0128682
3446.17	0.0112269
3455.81	0.0137853
3465.45	0.0125716
3475.1	0.0108781
3484.74	0.00980085
3494.38	0.0120135
3504.02	0.01048
3513.67	0.011379
3523.31	0.010923
3532.95	0.0117391
3542.59	0.0114422
3552.24	0.0113712
3561.88	0.0120288
3571.52	0.0114957
3581.16	0.011013
3590.8	0.0111109
3600.45	0.0102389
3610.09	0.0102755
3619.73	0.0120234
3629.37	0.0130544
3639.02	0.0107394
3648.66	0.0106304
3658.3	0.0105377
3667.94	0.0122699
3677.59	0.0116407
3687.23	0.0134383
3696.87	0.0089039
3706.51	0.0123476
3716.16	0.0109436
3725.8	0.00918959
3735.44	0.00756338
3745.08	0.00874083
3754.72	0.0105623
3764.37	0.00822918
3774.01	0.0113074
3783.65	0.00775171
3793.29	0.0098014
3802.94	0.0101867
3812.58	0.0124396
3822.22	0.00922667
3831.86	0.00677707
3841.51	0.0100266
3851.15	0.00781016
3860.79	0.0103164
3870.43	0.00864305
3880.07	0.0102544
3889.72	0.0101025
3899.36	0.0121196
3909	0.0093787
3918.64	0.00891441
3928.29	0.00963048
3937.93	0.0125352
3947.57	0.00946989
3957.21	0.0098047
3966.86	0.0111961
3976.5	0.0103771
3986.14	0.00763473
3995.78	0.00909748
