Measurement: Infrared, Infrared Data Processed
Mineral: Cordierite
Rruff sample: R040084
Ideal chemistry: Mg_2_Al_3_(AlSi_5_)O_18_
Locality: Norway
Source: University of Arizona Mineral Museum
Description: Purple coarsely crystalline massive
Measured chemistry: (Mg_1.88_Fe^2+^_0.11_Ca_0.01_)_Σ=2_(Al_3.95_Fe^3+^_0.05_)_Σ=4_(Si_4.96_Al_0.04_)_Σ=5_O_18_·0.90H_2_O·Na_0.04_ ; H_2_O estimated by difference and verified by Raman spectroscopy
x	intensity
399.193	0
408.835	0.147297
418.477	0.149553
428.12	0.123295
437.762	0.144694
447.404	0.13105
457.047	0.0996854
466.689	0.0972056
476.331	0.113586
485.974	0.105684
495.616	0.0626323
505.258	0.0349464
514.901	0.020397
524.543	0.0188049
534.185	0.0181
543.828	0.0211132
553.47	0.0324804
563.112	0.0669702
572.755	0.0735668
582.397	0.0817983
592.039	0.0478462
601.682	0.0449298
611.324	0.0596171
620.966	0.0628637
630.609	0.0397663
640.251	0.0301579
649.893	0.0325302
659.536	0.0362531
669.178	0.0506134
678.82	0.0536533
688.463	0.038045
698.105	0.0421629
707.747	0.047029
717.39	0.0506449
727.032	0.0656022
736.674	0.0924874
746.317	0.124005
755.959	0.138909
765.601	0.173175
775.244	0.132705
784.886	0.0817725
794.528	0.0489415
804.171	0.0391326
813.813	0.0402197
823.455	0.0464969
833.098	0.0513143
842.74	0.0597644
852.382	0.0734159
862.025	0.091451
871.667	0.115068
881.309	0.143069
890.952	0.177198
900.594	0.208468
910.236	0.193478
919.879	0.161262
929.521	0.195186
939.163	0.236978
948.806	0.243544
958.448	0.226621
968.09	0.185221
977.733	0.146996
987.375	0.111129
997.017	0.0810942
1006.66	0.0666494
1016.3	0.0642238
1025.94	0.0699111
1035.59	0.0430157
1045.23	0.0332158
1054.87	0.0291874
1064.51	0.0280637
1074.16	0.0297687
1083.8	0.0353482
1093.44	0.0398123
1103.08	0.0438134
1112.72	0.0574326
1122.37	0.0789052
1132.01	0.100649
1141.65	0.114921
1151.3	0.110307
1160.94	0.128977
1170.58	0.137568
1180.22	0.124269
1189.86	0.0918256
1199.51	0.0654857
1209.15	0.0442087
1218.79	0.0270223
1228.43	0.0130317
1238.08	0.00751921
1247.72	0.00567703
1257.36	0.00404859
1267	0.00334347
1276.64	0.00313063
1286.29	0.00265124
1295.93	0.00266936
1305.57	0.002635
1315.21	0.00211676
1324.86	0.00236275
1334.5	0.00251903
1344.14	0.0025322
1353.78	0.00254043
1363.43	0.00239831
1373.07	0.00251651
1382.71	0.00273342
1392.35	0.00279657
1401.99	0.00261191
1411.64	0.00291978
1421.28	0.00311321
1430.92	0.00261585
1440.57	0.00270365
1450.21	0.0030221
1459.85	0.00300588
1469.49	0.00313755
1479.13	0.00266865
1488.78	0.00262534
1498.42	0.002783
1508.06	0.00278602
1517.7	0.00264201
1527.35	0.00277842
1536.99	0.00279572
1546.63	0.0034776
1556.27	0.00391508
1565.91	0.00464976
1575.56	0.00494293
1585.2	0.00506795
1594.84	0.00543658
1604.48	0.00507072
1614.13	0.00511113
1623.77	0.00523811
1633.41	0.00621564
1643.05	0.0053501
1652.7	0.00398052
1662.34	0.00391985
1671.98	0.0035455
1681.62	0.00378766
1691.27	0.00347939
1700.91	0.00347337
1710.55	0.00279622
1720.19	0.00270683
1729.84	0.00222782
1739.48	0.00219918
1749.12	0.00215205
1758.76	0.00272654
1768.4	0.00243769
1778.05	0.0017917
1787.69	0.00194149
1797.33	0.00175729
1806.97	0.00183505
1816.62	0.00145299
1826.26	0.00186372
1835.9	0.00269914
1845.54	0.00197893
1855.18	0.00192293
1864.83	0.0013435
1874.47	0.000760538
1884.11	0.00111893
1893.75	0.000523712
1903.4	4.9371e-06
1913.04	-6.68745e-05
1922.68	-0.000622951
1932.32	-0.000933755
1941.97	-0.00176186
1951.61	-0.00128516
1961.25	-0.00133252
1970.89	-0.00142799
1980.54	0.00214943
1990.18	-0.000372186
1999.82	-0.000247766
2009.46	0.00249314
2019.11	-0.00166814
2028.75	-6.01048e-05
2038.39	0.000740574
2048.03	0.00164312
2057.67	0.000186923
2067.32	0.00180524
2076.96	0.00239884
2086.6	0.00267515
2096.24	0.0035308
2105.89	0.00404323
2115.53	0.00275255
2125.17	0.00157431
2134.81	0.00019407
2144.45	0.00140239
2154.1	-0.00103164
2163.74	0.00215905
2173.38	0.00218821
2183.02	0.00415168
2192.67	0.00175338
2202.31	0.00257231
2211.95	0.00234717
2221.59	0.00324985
2231.24	0.00337157
2240.88	0.00353754
2250.52	0.00229288
2260.16	0.00212346
2269.8	0.0030707
2279.45	0.00224139
2289.09	0.00396486
2298.73	0.00420854
2308.38	0.00408079
2318.02	0.00475639
2327.66	0.00322137
2337.3	0.00421198
2346.94	0.0197438
2356.59	0.00265447
2366.23	0.00192355
2375.87	0.00235096
2385.51	0.00280248
2395.16	0.00299675
2404.8	0.00332617
2414.44	0.00369308
2424.08	0.00404365
2433.72	0.00413914
2443.37	0.00512859
2453.01	0.0051926
2462.65	0.00512977
2472.29	0.00496614
2481.94	0.00480235
2491.58	0.00547729
2501.22	0.00532473
2510.86	0.00470904
2520.51	0.00599344
2530.15	0.00545948
2539.79	0.00538556
2549.43	0.00581369
2559.07	0.00569324
2568.72	0.00575069
2578.36	0.0049869
2588	0.00617729
2597.64	0.00559309
2607.29	0.00607781
2616.93	0.0066845
2626.57	0.00685952
2636.21	0.00656865
2645.86	0.00627335
2655.5	0.00620685
2665.14	0.00533213
2674.78	0.00531116
2684.43	0.00564092
2694.07	0.00610445
2703.71	0.00610549
2713.35	0.00529196
2722.99	0.00581676
2732.64	0.00563827
2742.28	0.00663943
2751.92	0.00614427
2761.56	0.00525634
2771.21	0.00587032
2780.85	0.00669255
2790.49	0.00584016
2800.13	0.00612372
2809.78	0.00595375
2819.42	0.00665852
2829.06	0.00595465
2838.7	0.00593741
2848.34	0.0055034
2857.99	0.00549729
2867.63	0.00530025
2877.27	0.00586582
2886.91	0.00608019
2896.56	0.00590839
2906.2	0.00634394
2915.84	0.00566711
2925.48	0.00433413
2935.13	0.00520333
2944.77	0.00637209
2954.41	0.00508791
2964.05	0.0073512
2973.7	0.00603684
2983.34	0.00767104
2992.98	0.0064635
3002.62	0.00793709
3012.26	0.00709936
3021.91	0.0069587
3031.55	0.0074969
3041.19	0.00829562
3050.83	0.00788681
3060.48	0.00835504
3070.12	0.00651171
3079.76	0.00705082
3089.4	0.0093388
3099.05	0.00879574
3108.69	0.00778019
3118.33	0.00844637
3127.97	0.0101798
3137.61	0.00835328
3147.26	0.0103917
3156.9	0.00993074
3166.54	0.00852042
3176.18	0.00872024
3185.83	0.00903588
3195.47	0.00975078
3205.11	0.0100655
3214.75	0.00886361
3224.4	0.0110611
3234.04	0.0094718
3243.68	0.0102674
3253.32	0.00907937
3262.97	0.0105899
3272.61	0.0101901
3282.25	0.00962116
3291.89	0.00972123
3301.53	0.0105611
3311.18	0.0113756
3320.82	0.0105959
3330.46	0.0106682
3340.1	0.0102472
3349.75	0.00994443
3359.39	0.0124128
3369.03	0.0107528
3378.67	0.0102652
3388.32	0.0105462
3397.96	0.0106574
3407.6	0.00987861
3417.24	0.0132268
3426.89	0.0106406
3436.53	0.0112738
3446.17	0.0123576
3455.81	0.010631
3465.45	0.0119176
3475.1	0.0107922
3484.74	0.00951733
3494.38	0.0123707
3504.02	0.00805209
3513.67	0.0102996
3523.31	0.00976886
3532.95	0.0102866
3542.59	0.0098145
3552.24	0.0108855
3561.88	0.0120129
3571.52	0.0122835
3581.16	0.00929749
3590.8	0.0102081
3600.45	0.0106456
3610.09	0.00892283
3619.73	0.0100143
3629.37	0.0119412
3639.02	0.00991331
3648.66	0.00885745
3658.3	0.0102895
3667.94	0.0117952
3677.59	0.0106626
3687.23	0.0127699
3696.87	0.00859513
3706.51	0.0108407
3716.16	0.0111549
3725.8	0.00964487
3735.44	0.00835874
3745.08	0.00735365
3754.72	0.00870827
3764.37	0.00985935
3774.01	0.0113462
3783.65	0.00818314
3793.29	0.00945451
3802.94	0.010344
3812.58	0.0127162
3822.22	0.00984696
3831.86	0.00847024
3841.51	0.0111547
3851.15	0.00830275
3860.79	0.0116918
3870.43	0.00905806
3880.07	0.0108038
3889.72	0.00898627
3899.36	0.0121216
3909	0.0102058
3918.64	0.00920238
3928.29	0.00773511
3937.93	0.0112772
3947.57	0.00984624
3957.21	0.0121376
3966.86	0.0119555
3976.5	0.0100952
3986.14	0.00969905
3995.78	0.0109161
