Measurement: Infrared, Infrared Data Processed
Mineral: Cordierite
Rruff sample: R040082
Ideal chemistry: Mg_2_Al_3_(AlSi_5_)O_18_
Locality: Madagascar
Source: University of Arizona Mineral Museum
Description: Dark gray coarsely crystalline massive
Measured chemistry: (Mg_1.60_Fe^2+^_0.39_Mn_0.01_)_Σ=2_Al_4.00_(Si_4.95_Al_0.05_)_Σ=5_O_18_·1.05H_2_O·Na_0.05_ ; H_2_O estimated by difference and verified by Raman spectroscopy
x	intensity
399.193	0
408.835	0.145495
418.477	0.15805
428.12	0.127843
437.762	0.146429
447.404	0.12823
457.047	0.103475
466.689	0.100817
476.331	0.115343
485.974	0.104971
495.616	0.0623729
505.258	0.0345789
514.901	0.0231793
524.543	0.0223886
534.185	0.0227012
543.828	0.0264251
553.47	0.0391144
563.112	0.0746928
572.755	0.0784393
582.397	0.0863114
592.039	0.0524188
601.682	0.0507885
611.324	0.0623685
620.966	0.0606957
630.609	0.0396645
640.251	0.0339332
649.893	0.037287
659.536	0.0422646
669.178	0.0557883
678.82	0.0559636
688.463	0.0447703
698.105	0.0488466
707.747	0.0519986
717.39	0.056189
727.032	0.0719314
736.674	0.0983016
746.317	0.125117
755.959	0.138687
765.601	0.165551
775.244	0.12679
784.886	0.0780602
794.528	0.0477408
804.171	0.039671
813.813	0.040462
823.455	0.0462893
833.098	0.0510144
842.74	0.0593228
852.382	0.0719193
862.025	0.08828
871.667	0.109815
881.309	0.135595
890.952	0.167748
900.594	0.198684
910.236	0.189465
919.879	0.157226
929.521	0.186867
939.163	0.230497
948.806	0.24029
958.448	0.228421
968.09	0.190309
977.733	0.151136
987.375	0.115043
997.017	0.0856966
1006.66	0.073242
1016.3	0.0699925
1025.94	0.0752187
1035.59	0.0497273
1045.23	0.0395541
1054.87	0.0351793
1064.51	0.0333974
1074.16	0.03378
1083.8	0.0369786
1093.44	0.0413411
1103.08	0.0457024
1112.72	0.0568221
1122.37	0.0771734
1132.01	0.0968932
1141.65	0.110507
1151.3	0.107182
1160.94	0.125702
1170.58	0.137438
1180.22	0.124884
1189.86	0.0926594
1199.51	0.0661218
1209.15	0.0431216
1218.79	0.0256339
1228.43	0.0126522
1238.08	0.00743582
1247.72	0.00545612
1257.36	0.00421902
1267	0.00357955
1276.64	0.00312795
1286.29	0.00287541
1295.93	0.00264195
1305.57	0.00281796
1315.21	0.00231202
1324.86	0.00246429
1334.5	0.00246501
1344.14	0.00234367
1353.78	0.0023684
1363.43	0.00254794
1373.07	0.00278567
1382.71	0.0026086
1392.35	0.00303228
1401.99	0.00293444
1411.64	0.00302123
1421.28	0.00311707
1430.92	0.00288151
1440.57	0.00291308
1450.21	0.00289936
1459.85	0.00292419
1469.49	0.00287542
1479.13	0.00273115
1488.78	0.00272856
1498.42	0.00267688
1508.06	0.00275792
1517.7	0.00248394
1527.35	0.00271329
1536.99	0.00282488
1546.63	0.00342533
1556.27	0.0040246
1565.91	0.00453168
1575.56	0.00481311
1585.2	0.00503287
1594.84	0.00537456
1604.48	0.00512211
1614.13	0.00529985
1623.77	0.0053538
1633.41	0.00609525
1643.05	0.00552122
1652.7	0.00463722
1662.34	0.00444441
1671.98	0.00413368
1681.62	0.00397903
1691.27	0.00367152
1700.91	0.00379733
1710.55	0.00286188
1720.19	0.00283245
1729.84	0.00244093
1739.48	0.00216888
1749.12	0.00187441
1758.76	0.00235006
1768.4	0.00264675
1778.05	0.00185565
1787.69	0.00148037
1797.33	0.00182193
1806.97	0.00161182
1816.62	0.00109746
1826.26	0.00168493
1835.9	0.00212335
1845.54	0.00206503
1855.18	0.00152138
1864.83	0.00113275
1874.47	0.000161866
1884.11	0.000327957
1893.75	0.000639312
1903.4	0.000641172
1913.04	0.00024532
1922.68	-0.000693313
1932.32	-0.000812107
1941.97	-0.00247348
1951.61	-0.00158861
1961.25	-0.00259795
1970.89	-0.00185322
1980.54	-0.000916575
1990.18	-5.16051e-05
1999.82	-0.00030295
2009.46	0.00113341
2019.11	-0.00351296
2028.75	0.000439554
2038.39	0.000507259
2048.03	0.000652566
2057.67	0.00121902
2067.32	0.000763247
2076.96	0.00296235
2086.6	0.00231905
2096.24	0.00302229
2105.89	0.00258308
2115.53	0.00350681
2125.17	0.0014614
2134.81	-0.00135699
2144.45	0.00062513
2154.1	-0.00231804
2163.74	0.00257655
2173.38	0.0028073
2183.02	0.00309208
2192.67	0.00201967
2202.31	0.00237711
2211.95	0.00148927
2221.59	0.00370976
2231.24	0.00198079
2240.88	0.00535441
2250.52	0.00274161
2260.16	0.00229022
2269.8	0.00278608
2279.45	0.00236129
2289.09	0.0033307
2298.73	0.00363956
2308.38	0.00296193
2318.02	0.0042585
2327.66	0.00385178
2337.3	0.00387397
2346.94	0.0062826
2356.59	0.00386451
2366.23	0.00243583
2375.87	0.00288458
2385.51	0.00195484
2395.16	0.00263702
2404.8	0.00297018
2414.44	0.00467481
2424.08	0.00370176
2433.72	0.00453104
2443.37	0.00451052
2453.01	0.00368457
2462.65	0.00474525
2472.29	0.00524223
2481.94	0.00462026
2491.58	0.00411789
2501.22	0.00495232
2510.86	0.00497458
2520.51	0.00553964
2530.15	0.00468084
2539.79	0.00520873
2549.43	0.00515729
2559.07	0.00593847
2568.72	0.0063552
2578.36	0.00427883
2588	0.00520272
2597.64	0.00532336
2607.29	0.00516302
2616.93	0.00677813
2626.57	0.00607544
2636.21	0.00635085
2645.86	0.00573027
2655.5	0.0062
2665.14	0.00529714
2674.78	0.00528701
2684.43	0.00495576
2694.07	0.0054894
2703.71	0.00519091
2713.35	0.00535833
2722.99	0.00539115
2732.64	0.00522815
2742.28	0.00620826
2751.92	0.00522473
2761.56	0.00529404
2771.21	0.00561386
2780.85	0.00568986
2790.49	0.00592028
2800.13	0.00575773
2809.78	0.00615654
2819.42	0.006567
2829.06	0.00582133
2838.7	0.0063083
2848.34	0.00544147
2857.99	0.00494495
2867.63	0.00484592
2877.27	0.00554823
2886.91	0.00623908
2896.56	0.00524688
2906.2	0.00605189
2915.84	0.00589908
2925.48	0.0029513
2935.13	0.00644538
2944.77	0.00696276
2954.41	0.00594453
2964.05	0.00701842
2973.7	0.00714428
2983.34	0.00774865
2992.98	0.00690064
3002.62	0.00714503
3012.26	0.00731209
3021.91	0.00834992
3031.55	0.00719889
3041.19	0.00827035
3050.83	0.00730546
3060.48	0.00791885
3070.12	0.00698272
3079.76	0.00830456
3089.4	0.00721664
3099.05	0.00784065
3108.69	0.00830834
3118.33	0.00921598
3127.97	0.0096849
3137.61	0.00786083
3147.26	0.0102319
3156.9	0.0103628
3166.54	0.00941304
3176.18	0.00861682
3185.83	0.0100139
3195.47	0.0106999
3205.11	0.0109934
3214.75	0.0102749
3224.4	0.0124594
3234.04	0.01029
3243.68	0.0110335
3253.32	0.0103245
3262.97	0.0133518
3272.61	0.0114938
3282.25	0.011382
3291.89	0.0100686
3301.53	0.0124414
3311.18	0.0128103
3320.82	0.0111607
3330.46	0.0121225
3340.1	0.0112348
3349.75	0.0111287
3359.39	0.0126871
3369.03	0.0139478
3378.67	0.0123177
3388.32	0.0119633
3397.96	0.0126547
3407.6	0.0118138
3417.24	0.0128581
3426.89	0.0119543
3436.53	0.0141925
3446.17	0.0141592
3455.81	0.0129296
3465.45	0.0137295
3475.1	0.0122955
3484.74	0.0117224
3494.38	0.0125315
3504.02	0.0107161
3513.67	0.0118227
3523.31	0.0127284
3532.95	0.0112195
3542.59	0.0119419
3552.24	0.0138097
3561.88	0.0121692
3571.52	0.0139293
3581.16	0.010146
3590.8	0.0110434
3600.45	0.0113902
3610.09	0.0100888
3619.73	0.0117208
3629.37	0.0129942
3639.02	0.00918135
3648.66	0.00949504
3658.3	0.0108714
3667.94	0.0112315
3677.59	0.00967335
3687.23	0.011287
3696.87	0.00952889
3706.51	0.00849305
3716.16	0.00825927
3725.8	0.00870987
3735.44	0.0075433
3745.08	0.00702368
3754.72	0.00815111
3764.37	0.00836715
3774.01	0.0099658
3783.65	0.00688074
3793.29	0.00967115
3802.94	0.00905701
3812.58	0.0109767
3822.22	0.00721539
3831.86	0.00744312
3841.51	0.00786031
3851.15	0.00801595
3860.79	0.00991573
3870.43	0.0076809
3880.07	0.00913546
3889.72	0.00928276
3899.36	0.0101218
3909	0.00947768
3918.64	0.00872503
3928.29	0.00832374
3937.93	0.00949504
3947.57	0.00867511
3957.21	0.00863195
3966.86	0.0111621
3976.5	0.0091221
3986.14	0.00920816
3995.78	0.010785
