Measurement: Infrared, Infrared Data Processed
Mineral: Cornwallite
Rruff sample: R050469
Ideal chemistry: Cu^2+^_5_(As^5+^O_4_)_2_(OH)_4_
Locality: Carissa mine, Tintic District, Utah, USA
Source: University of Arizona Mineral Museum
Description: Dark green botryoidal crust
Measured chemistry: (Cu_4.98_Ca_0.02_)_Î£=5_(As_1.00_O_4_)_2_(OH)_4_ ; OH estimated by difference and charge balance
x	intensity
50.1401	0.0172165
52.0686	0.014523
53.9971	0.0112533
55.9255	0.00768015
57.854	0.00618581
59.7825	0.00966878
61.7109	0.00905304
63.6394	0.0101089
65.5679	0.0131218
67.4963	0.0129135
69.4248	0.0137893
71.3533	0.0138902
73.2817	0.0144766
75.2102	0.013243
77.1387	0.0127353
79.0671	0.0138127
80.9956	0.0145014
82.9241	0.0141937
84.8525	0.0145986
86.781	0.014565
88.7095	0.0144438
90.6379	0.0156261
92.5664	0.0167752
94.4948	0.0170505
96.4233	0.016375
98.3518	0.015489
100.28	0.0163337
102.209	0.0173423
104.137	0.0173769
106.066	0.0175819
107.994	0.0176901
109.923	0.0178697
111.851	0.0190342
113.779	0.0200905
115.708	0.0211435
117.636	0.0217761
119.565	0.0221755
121.493	0.022575
123.422	0.0227032
125.35	0.0231563
127.279	0.0239474
129.207	0.0241888
131.136	0.0240382
133.064	0.0234123
134.993	0.0227938
136.921	0.023368
138.85	0.0249836
140.778	0.0264125
142.707	0.0269701
144.635	0.0267723
146.563	0.0267851
148.492	0.0267969
150.42	0.0260296
152.349	0.0255884
154.277	0.0258662
156.206	0.0263592
158.134	0.0261195
160.063	0.0257996
161.991	0.0252273
163.92	0.024667
165.848	0.0249166
167.777	0.0251393
169.705	0.0248412
171.633	0.0242938
173.562	0.0241941
175.49	0.0248001
177.419	0.0255414
179.347	0.0258504
181.276	0.0262092
183.204	0.0275221
185.133	0.0293028
187.061	0.0300674
188.99	0.0296452
190.918	0.028792
192.847	0.0281531
194.775	0.0274046
196.704	0.0262625
198.632	0.0253183
200.56	0.0250245
202.489	0.0249587
204.417	0.0250793
206.346	0.0249544
208.274	0.0249658
210.203	0.0255843
212.131	0.026465
214.06	0.0275047
215.988	0.0284271
217.917	0.0289217
219.845	0.0291458
221.774	0.0287941
223.702	0.0286853
225.631	0.028744
227.559	0.0287111
229.488	0.0281776
231.416	0.027654
233.344	0.0270937
235.273	0.0268745
237.201	0.0273812
239.13	0.0279908
241.058	0.0286782
242.987	0.0292734
244.915	0.0296757
246.844	0.0302214
248.772	0.030997
250.701	0.0313952
252.629	0.0316579
254.558	0.0316607
256.486	0.031049
258.414	0.0303124
260.343	0.0296687
262.271	0.029568
264.2	0.0298155
266.128	0.0303355
268.057	0.0307396
269.985	0.0311042
271.914	0.0313855
273.842	0.0318981
275.771	0.0324572
277.699	0.033124
279.628	0.0338131
281.556	0.0343785
283.485	0.0349153
285.413	0.0358004
287.341	0.0368337
289.27	0.0379163
291.198	0.0391134
293.127	0.0398634
295.055	0.0400201
296.984	0.0398375
298.912	0.0393706
300.841	0.0385971
302.769	0.0381708
304.698	0.0384968
306.626	0.0389652
308.555	0.0394104
310.483	0.0400915
312.411	0.0410144
314.34	0.0414446
316.269	0.0412964
318.197	0.0414666
320.125	0.0417735
322.054	0.0419342
323.982	0.0423839
325.911	0.0431929
327.839	0.044128
329.768	0.0451769
331.696	0.0461492
333.625	0.0472997
335.553	0.0484137
337.482	0.0492331
339.41	0.0500026
341.339	0.0506976
343.267	0.0507781
345.195	0.0502927
347.124	0.0500994
349.052	0.0501544
350.981	0.0499909
352.909	0.0495614
354.838	0.0491726
356.766	0.0488478
358.695	0.0481808
360.623	0.0475644
362.552	0.0467585
364.48	0.0461049
366.409	0.0455043
368.337	0.0447493
370.265	0.0442157
372.194	0.0435791
374.122	0.0429088
376.051	0.0418266
377.979	0.0405254
379.908	0.0393526
381.836	0.0382533
383.765	0.0372279
385.693	0.0361598
387.622	0.0356162
389.55	0.0352598
391.479	0.0347807
393.407	0.0347995
395.336	0.0351347
397.264	0.0354505
399.192	0.0356037
401.121	0.0358447
403.049	0.0361273
404.978	0.0366143
406.906	0.0372204
408.835	0.0378606
410.763	0.0387392
412.692	0.0396976
414.62	0.0405978
416.549	0.041721
418.477	0.0428931
420.406	0.0440543
422.334	0.0447884
424.262	0.0452206
426.191	0.0456059
428.12	0.0461477
430.048	0.046417
431.976	0.046426
433.905	0.0467739
435.833	0.047141
437.762	0.0472571
439.69	0.047789
441.619	0.0483469
443.547	0.0484913
445.476	0.0487251
447.404	0.0489621
449.333	0.0488748
451.261	0.0490186
453.19	0.0491334
455.118	0.0489486
457.046	0.0488818
458.975	0.048979
460.903	0.0490243
462.832	0.0492868
464.76	0.0492495
466.689	0.0494581
468.617	0.0497033
470.546	0.0492608
472.474	0.0482948
474.403	0.0472243
476.331	0.046352
478.26	0.045685
480.188	0.0455505
482.116	0.0452372
484.045	0.044929
485.974	0.0446803
487.902	0.0449527
489.83	0.0456514
491.759	0.0457299
493.687	0.0460134
495.616	0.0466678
497.544	0.047209
499.473	0.047691
501.401	0.0480716
503.33	0.0486371
505.258	0.049125
507.187	0.049215
509.115	0.0489669
511.043	0.0484313
512.972	0.0481642
514.9	0.0482625
516.829	0.0480569
518.757	0.0470393
520.686	0.0465535
522.614	0.046381
524.543	0.0460685
526.471	0.0459983
528.4	0.0458392
530.328	0.0457937
532.257	0.0460741
534.185	0.0462834
536.114	0.0462225
538.042	0.0460678
539.971	0.0460179
541.899	0.0460245
543.827	0.0460267
545.756	0.0457554
547.684	0.0456109
549.613	0.0454435
551.541	0.0447058
553.47	0.0438832
555.398	0.0431736
557.327	0.0416537
559.255	0.0402661
561.184	0.0387731
563.112	0.0376458
565.041	0.0363486
566.969	0.0353775
568.898	0.0346645
570.826	0.0339348
572.755	0.0332486
574.683	0.0326867
576.611	0.0319892
578.54	0.031659
580.468	0.0317247
582.397	0.0317358
584.325	0.0309822
586.254	0.0306197
588.182	0.030307
590.111	0.0297987
592.039	0.029601
593.968	0.0292468
595.896	0.0288743
597.824	0.0284444
599.753	0.0278817
601.682	0.0274334
603.61	0.0275773
605.538	0.0276837
607.467	0.0273951
609.395	0.0269663
611.324	0.0267188
613.252	0.0272965
615.181	0.0277668
617.109	0.0285292
619.038	0.0283347
620.966	0.0281271
622.894	0.028561
624.823	0.0297043
626.751	0.0312771
628.68	0.0331432
630.608	0.034302
632.537	0.0348634
634.465	0.0350597
636.394	0.0355561
638.322	0.0358562
640.251	0.0359024
642.179	0.0361798
644.108	0.0367616
646.036	0.0374043
647.965	0.0376906
649.893	0.037515
651.822	0.0379262
653.75	0.0385642
655.678	0.0386128
657.607	0.0384375
659.535	0.0385458
661.464	0.0391575
663.392	0.0396616
665.321	0.0400583
667.249	0.0407852
669.178	0.0414949
671.106	0.0419913
673.035	0.0422564
674.963	0.0426418
676.892	0.0430267
678.82	0.0434444
680.749	0.0439681
682.677	0.0445364
684.606	0.0449088
686.534	0.0457032
688.462	0.0460839
690.391	0.0465692
692.319	0.0476793
694.248	0.0482725
696.176	0.0489124
698.105	0.0502988
700.033	0.0531522
