Measurement: Infrared, Infrared Data Processed
Mineral: Cornwallite
Rruff sample: R050469
Ideal chemistry: Cu^2+^_5_(As^5+^O_4_)_2_(OH)_4_
Locality: Carissa mine, Tintic District, Utah, USA
Source: University of Arizona Mineral Museum
Description: Dark green botryoidal crust
Measured chemistry: (Cu_4.98_Ca_0.02_)_Î£=5_(As_1.00_O_4_)_2_(OH)_4_ ; OH estimated by difference and charge balance
x	intensity
374.123	0.165096
383.765	0.127009
393.407	0.128627
403.05	0.133129
412.692	0.170055
422.334	0.190438
431.976	0.192295
441.619	0.200168
451.261	0.197762
460.904	0.190006
470.546	0.17777
480.188	0.151327
489.83	0.152581
499.473	0.16037
509.115	0.166059
518.758	0.149834
528.4	0.139151
538.042	0.13891
547.684	0.128553
557.327	0.102622
566.969	0.0715446
576.611	0.0539099
586.254	0.0480051
595.896	0.0434583
605.538	0.0422617
615.181	0.043029
624.823	0.0439032
634.466	0.046222
644.108	0.0495448
653.75	0.0536554
663.393	0.0583295
673.035	0.0646628
682.677	0.0720386
692.319	0.0824655
701.962	0.0940625
711.604	0.110051
721.246	0.127912
730.889	0.153446
740.531	0.185508
750.173	0.223314
759.816	0.261313
769.458	0.300444
779.101	0.308699
788.743	0.29629
798.385	0.316669
808.028	0.334431
817.67	0.327811
827.312	0.313909
836.955	0.27443
846.597	0.225003
856.239	0.196964
865.881	0.179363
875.524	0.138714
885.166	0.13026
894.808	0.112409
904.451	0.0906674
914.093	0.0745404
923.736	0.0549295
933.378	0.0450743
943.02	0.0434952
952.663	0.0461512
962.305	0.0482724
971.947	0.0533972
981.59	0.0488647
991.232	0.0352842
1000.87	0.0294482
1010.52	0.027351
1020.16	0.027434
1029.8	0.0289199
1039.44	0.0326479
1049.09	0.0363921
1058.73	0.0321526
1068.37	0.0250842
1078.01	0.0211607
1087.65	0.0210563
1097.3	0.0248996
1106.94	0.0219141
1116.58	0.0193015
1126.22	0.0170543
1135.87	0.0157368
1145.51	0.0143609
1155.15	0.0137819
1164.79	0.0137252
1174.44	0.0134317
1184.08	0.0132145
1193.72	0.0130553
1203.36	0.0124589
1213.01	0.0120397
1222.65	0.0120576
1232.29	0.0123217
1241.93	0.0126237
1251.58	0.0133201
1261.22	0.0143889
1270.86	0.0165777
1280.5	0.0196274
1290.14	0.0214445
1299.79	0.0230555
1309.43	0.0245519
1319.07	0.025816
1328.71	0.0283181
1338.36	0.0318451
1348	0.0362575
1357.64	0.040204
1367.28	0.0459694
1376.92	0.0540988
1386.57	0.062321
1396.21	0.0667569
1405.85	0.0628759
1415.49	0.0588699
1425.14	0.0557491
1434.78	0.0481424
1444.42	0.0409235
1454.06	0.0394449
1463.71	0.0427091
1473.35	0.0454996
1482.99	0.0535267
1492.63	0.0603012
1502.28	0.0612133
1511.92	0.0585036
1521.56	0.0542242
1531.2	0.046679
1540.85	0.038962
1550.49	0.0317858
1560.13	0.0278144
1569.77	0.0243531
1579.41	0.0225586
1589.06	0.0218476
1598.7	0.021221
1608.34	0.0204675
1617.98	0.0204656
1627.63	0.0200964
1637.27	0.0200545
1646.91	0.0202458
1656.55	0.0193386
1666.19	0.0188725
1675.84	0.0187167
1685.48	0.018461
1695.12	0.0179621
1704.77	0.017461
1714.41	0.0173312
1724.05	0.017036
1733.69	0.0175146
1743.33	0.0157588
1752.98	0.0157008
1762.62	0.0159635
1772.26	0.0166448
1781.9	0.0163187
1791.55	0.0167964
1801.19	0.016969
1810.83	0.0170547
1820.47	0.0173798
1830.12	0.017098
1839.76	0.0175147
1849.4	0.0180172
1859.04	0.0182742
1868.68	0.0186926
1878.33	0.0183759
1887.97	0.0188762
1897.61	0.0180358
1907.25	0.0186777
1916.9	0.0186567
1926.54	0.0189706
1936.18	0.0189722
1945.82	0.0183207
1955.46	0.0181126
1965.11	0.0157732
1974.75	0.018482
1984.39	0.0201277
1994.04	0.0188236
2003.68	0.0174593
2013.32	0.0191217
2022.96	0.0190165
2032.6	0.0171502
2042.25	0.020109
2051.89	0.020939
2061.53	0.0209328
2071.17	0.0211587
2080.82	0.021115
2090.46	0.0213909
2100.1	0.0219389
2109.74	0.0224215
2119.39	0.0213992
2129.03	0.0200212
2138.67	0.0211541
2148.31	0.0195333
2157.95	0.0180537
2167.6	0.0221552
2177.24	0.0218753
2186.88	0.0234956
2196.52	0.0228411
2206.17	0.0233264
2215.81	0.0230706
2225.45	0.0237556
2235.09	0.0241492
2244.74	0.0255155
2254.38	0.025085
2264.02	0.0252368
2273.66	0.026052
2283.3	0.0266311
2292.95	0.0272394
2302.59	0.0269343
2312.23	0.0269739
2321.87	0.028149
2331.52	0.0270606
2341.16	0.0267665
2350.8	0.0266914
2360.44	0.027869
2370.09	0.0274852
2379.73	0.0265004
2389.37	0.026872
2399.01	0.0279883
2408.66	0.0280749
2418.3	0.0281357
2427.94	0.0289644
2437.58	0.0283519
2447.22	0.0284872
2456.87	0.0287571
2466.51	0.0291549
2476.15	0.0290198
2485.79	0.0297323
2495.44	0.0285555
2505.08	0.0298633
2514.72	0.0299297
2524.36	0.029502
2534.01	0.0302731
2543.65	0.0307129
2553.29	0.0311594
2562.93	0.0311267
2572.57	0.0318596
2582.22	0.0321752
2591.86	0.0331159
2601.5	0.0327715
2611.14	0.0333528
2620.79	0.033399
2630.43	0.03419
2640.07	0.0345213
2649.71	0.0347874
2659.36	0.034468
2669	0.0347954
2678.64	0.0350192
2688.28	0.0355532
2697.93	0.0360169
2707.57	0.0367503
2717.21	0.0370054
2726.85	0.0375956
2736.49	0.0386847
2746.14	0.0381384
2755.78	0.0384626
2765.42	0.039212
2775.06	0.0400553
2784.71	0.0402187
2794.35	0.0411882
2803.99	0.0415587
2813.63	0.0419558
2823.28	0.0429548
2832.92	0.043874
2842.56	0.044958
2852.2	0.0454057
2861.84	0.0463829
2871.49	0.0468189
2881.13	0.0477945
2890.77	0.0484025
2900.41	0.0492819
2910.06	0.0501906
2919.7	0.0518805
2929.34	0.0520095
2938.98	0.0507297
2948.62	0.051385
2958.27	0.0514929
2967.91	0.0511539
2977.55	0.0514958
2987.2	0.0519956
2996.84	0.0524387
3006.48	0.0529728
3016.12	0.0546758
3025.76	0.0537943
3035.41	0.0546267
3045.05	0.0565057
3054.69	0.0573499
3064.33	0.0575082
3073.98	0.0585152
3083.62	0.059564
3093.26	0.0615423
3102.9	0.0612838
3112.55	0.0631405
3122.19	0.0640212
3131.83	0.0650198
3141.47	0.0662058
3151.11	0.0674238
3160.76	0.0680289
3170.4	0.0694762
3180.04	0.0705578
3189.68	0.0729532
3199.33	0.0723855
3208.97	0.0739488
3218.61	0.07483
3228.25	0.0763923
3237.9	0.0785231
3247.54	0.0801141
3257.18	0.0807699
3266.82	0.0839823
3276.47	0.0869817
3286.11	0.0888692
3295.75	0.0918105
3305.39	0.0962265
3315.03	0.101428
3324.68	0.107439
3334.32	0.114758
3343.96	0.123573
3353.6	0.126589
3363.25	0.123503
3372.89	0.120621
3382.53	0.122895
3392.17	0.126981
3401.82	0.127485
3411.46	0.117957
3421.1	0.100289
3430.74	0.0824321
3440.39	0.0697898
3450.03	0.063722
3459.67	0.0581955
3469.31	0.0550131
3478.95	0.0526061
3488.6	0.0495481
3498.24	0.04892
3507.88	0.0453388
3517.52	0.0432635
3527.17	0.0426219
3536.81	0.0403839
3546.45	0.0397309
3556.09	0.0373293
3565.74	0.03636
3575.38	0.0340306
3585.02	0.0342536
3594.66	0.0325648
3604.3	0.0313982
3613.95	0.0298742
3623.59	0.0294196
3633.23	0.0285965
3642.87	0.0291246
3652.52	0.0288258
3662.16	0.0291352
3671.8	0.0297121
3681.44	0.0289973
3691.09	0.0304413
3700.73	0.0302591
3710.37	0.031995
3720.01	0.032224
3729.66	0.0324399
3739.3	0.0323593
3748.94	0.0336795
3758.58	0.0332937
3768.22	0.0337607
3777.87	0.0337606
3787.51	0.0340958
3797.15	0.0337639
3806.79	0.0350073
3816.44	0.0345106
3826.08	0.034803
3835.72	0.0341109
3845.36	0.0357005
3855.01	0.0344624
3864.65	0.0328838
3874.29	0.0353969
3883.93	0.0354942
3893.57	0.0350388
3903.22	0.0363666
3912.86	0.0363428
3922.5	0.037032
3932.14	0.0362324
3941.79	0.0367018
3951.43	0.0352294
3961.07	0.0361814
3970.71	0.0372834
3980.36	0.0367358
3990	0.0377919
3999.64	0.038007
