Measurement: Infrared, Infrared Data Processed
Mineral: Corundum
Rruff sample: R040096
Ideal chemistry: Al_2_O_3_
Locality: Sri Lanka
Source: University of Arizona Mineral Museum
Description: Pale purple hexagonal prism
Measured chemistry: Al_2.00_O_3_
x	intensity
399.193	0
408.835	0.229499
418.477	0.229374
428.12	0.233229
437.762	0.232753
447.404	0.236645
457.047	0.214261
466.689	0.171835
476.331	0.114947
485.974	0.103347
495.616	0.116236
505.258	0.106035
514.901	0.124489
524.543	0.170753
534.185	0.213684
543.828	0.238001
553.47	0.249653
563.112	0.247617
572.755	0.242817
582.397	0.246147
592.039	0.254761
601.682	0.251842
611.324	0.240022
620.966	0.220662
630.609	0.218253
640.251	0.226618
649.893	0.212409
659.536	0.198171
669.178	0.185038
678.82	0.174363
688.463	0.164831
698.105	0.157013
707.747	0.148704
717.39	0.140871
727.032	0.133642
736.674	0.125896
746.317	0.11858
755.959	0.111538
765.601	0.104861
775.244	0.0980731
784.886	0.0911388
794.528	0.084932
804.171	0.0789129
813.813	0.0715734
823.455	0.064843
833.098	0.0576212
842.74	0.0505338
852.382	0.0433834
862.025	0.0360506
871.667	0.0291419
881.309	0.0233166
890.952	0.0198232
900.594	0.0174415
910.236	0.0145529
919.879	0.0128029
929.521	0.0115291
939.163	0.0105427
948.806	0.00955267
958.448	0.00888308
968.09	0.00847201
977.733	0.00842476
987.375	0.00842527
997.017	0.00870098
1006.66	0.00925158
1016.3	0.00882373
1025.94	0.00851164
1035.59	0.00803612
1045.23	0.00777187
1054.87	0.00720017
1064.51	0.00716689
1074.16	0.00653259
1083.8	0.00620321
1093.44	0.00588494
1103.08	0.00597436
1112.72	0.00588589
1122.37	0.00530082
1132.01	0.00496807
1141.65	0.00463097
1151.3	0.00425782
1160.94	0.00404939
1170.58	0.00367479
1180.22	0.00349547
1189.86	0.0034625
1199.51	0.00334512
1209.15	0.00329701
1218.79	0.00285434
1228.43	0.00270735
1238.08	0.00289172
1247.72	0.00302725
1257.36	0.00290586
1267	0.0030576
1276.64	0.00280659
1286.29	0.00285574
1295.93	0.00284968
1305.57	0.00285021
1315.21	0.00333332
1324.86	0.00317848
1334.5	0.00344759
1344.14	0.0032925
1353.78	0.0035019
1363.43	0.0037169
1373.07	0.00353661
1382.71	0.003658
1392.35	0.00381853
1401.99	0.00374299
1411.64	0.00411561
1421.28	0.00424268
1430.92	0.00451114
1440.57	0.00437249
1450.21	0.0045055
1459.85	0.00470303
1469.49	0.00449635
1479.13	0.00444986
1488.78	0.00425978
1498.42	0.00453049
1508.06	0.0046698
1517.7	0.00441604
1527.35	0.00470556
1536.99	0.00484654
1546.63	0.00524695
1556.27	0.00564601
1565.91	0.00580955
1575.56	0.00590356
1585.2	0.00619888
1594.84	0.00630143
1604.48	0.00627967
1614.13	0.00622575
1623.77	0.00666079
1633.41	0.0061676
1643.05	0.00635156
1652.7	0.00597487
1662.34	0.00629887
1671.98	0.00654939
1681.62	0.00569419
1691.27	0.00642009
1700.91	0.00646637
1710.55	0.00594445
1720.19	0.00597205
1729.84	0.00617384
1739.48	0.00571699
1749.12	0.00613088
1758.76	0.00661796
1768.4	0.00695965
1778.05	0.00669679
1787.69	0.00662425
1797.33	0.00732129
1806.97	0.00690601
1816.62	0.00698192
1826.26	0.00738149
1835.9	0.00755676
1845.54	0.00717991
1855.18	0.00733629
1864.83	0.00768037
1874.47	0.00772867
1884.11	0.00740433
1893.75	0.00821669
1903.4	0.00790499
1913.04	0.00779819
1922.68	0.00781092
1932.32	0.00759119
1941.97	0.00869836
1951.61	0.00815869
1961.25	0.0074561
1970.89	0.00796936
1980.54	0.0109419
1990.18	0.0084148
1999.82	0.00942735
2009.46	0.0111193
2019.11	0.00891631
2028.75	0.00738808
2038.39	0.0104508
2048.03	0.010298
2057.67	0.0108924
2067.32	0.0112497
2076.96	0.0104623
2086.6	0.0111876
2096.24	0.00910286
2105.89	0.0107425
2115.53	0.0109272
2125.17	0.0103339
2134.81	0.00975028
2144.45	0.0097608
2154.1	0.00883324
2163.74	0.0111556
2173.38	0.0114776
2183.02	0.0109975
2192.67	0.0127332
2202.31	0.010828
2211.95	0.0123667
2221.59	0.0116806
2231.24	0.0118921
2240.88	0.0129503
2250.52	0.0126878
2260.16	0.0129799
2269.8	0.0139934
2279.45	0.0135683
2289.09	0.0132771
2298.73	0.0143545
2308.38	0.0136727
2318.02	0.0140616
2327.66	0.0138077
2337.3	0.0131169
2346.94	0.0127507
2356.59	0.0133012
2366.23	0.0132483
2375.87	0.0131618
2385.51	0.0119743
2395.16	0.0126242
2404.8	0.011058
2414.44	0.0131075
2424.08	0.0127509
2433.72	0.0144438
2443.37	0.0129582
2453.01	0.0142498
2462.65	0.0139614
2472.29	0.0139827
2481.94	0.0143241
2491.58	0.0129723
2501.22	0.0138313
2510.86	0.0139831
2520.51	0.0152187
2530.15	0.0145471
2539.79	0.0137348
2549.43	0.0143295
2559.07	0.0150573
2568.72	0.0143253
2578.36	0.014599
2588	0.0161176
2597.64	0.014989
2607.29	0.0152192
2616.93	0.0146677
2626.57	0.0149359
2636.21	0.0163253
2645.86	0.0155894
2655.5	0.01545
2665.14	0.0144981
2674.78	0.0147437
2684.43	0.0149289
2694.07	0.0149832
2703.71	0.0149631
2713.35	0.0151985
2722.99	0.0145265
2732.64	0.0144162
2742.28	0.0151873
2751.92	0.014149
2761.56	0.0147793
2771.21	0.0155678
2780.85	0.0149093
2790.49	0.0163695
2800.13	0.0157243
2809.78	0.0157807
2819.42	0.0162353
2829.06	0.0153169
2838.7	0.0160889
2848.34	0.0153382
2857.99	0.0153569
2867.63	0.0148633
2877.27	0.0165344
2886.91	0.016001
2896.56	0.0160792
2906.2	0.0156781
2915.84	0.0153178
2925.48	0.0144226
2935.13	0.0157785
2944.77	0.0154518
2954.41	0.0149091
2964.05	0.0158559
2973.7	0.0158872
2983.34	0.0162436
2992.98	0.0166537
3002.62	0.0159943
3012.26	0.0169304
3021.91	0.0175172
3031.55	0.016908
3041.19	0.0179014
3050.83	0.0157268
3060.48	0.0170393
3070.12	0.0177705
3079.76	0.0169907
3089.4	0.0173671
3099.05	0.0180905
3108.69	0.0187752
3118.33	0.0181346
3127.97	0.0187883
3137.61	0.0192229
3147.26	0.0181517
3156.9	0.0180342
3166.54	0.0186218
3176.18	0.0197251
3185.83	0.0182096
3195.47	0.0172154
3205.11	0.0193372
3214.75	0.0186157
3224.4	0.019513
3234.04	0.019306
3243.68	0.0190206
3253.32	0.0194927
3262.97	0.0196911
3272.61	0.0196645
3282.25	0.0202478
3291.89	0.0187249
3301.53	0.0197068
3311.18	0.0192057
3320.82	0.0195184
3330.46	0.0180106
3340.1	0.019595
3349.75	0.020939
3359.39	0.0183452
3369.03	0.0200295
3378.67	0.0224811
3388.32	0.0206566
3397.96	0.019864
3407.6	0.0197628
3417.24	0.0194171
3426.89	0.0212891
3436.53	0.0192678
3446.17	0.0196547
3455.81	0.0179559
3465.45	0.0171071
3475.1	0.0186609
3484.74	0.0202169
3494.38	0.0194669
3504.02	0.0194317
3513.67	0.0203465
3523.31	0.0198036
3532.95	0.019339
3542.59	0.019533
3552.24	0.0211354
3561.88	0.0205379
3571.52	0.0191995
3581.16	0.0204925
3590.8	0.0188395
3600.45	0.0186092
3610.09	0.0202617
3619.73	0.0209543
3629.37	0.0196872
3639.02	0.0202123
3648.66	0.018095
3658.3	0.0208013
3667.94	0.0200173
3677.59	0.020648
3687.23	0.0206687
3696.87	0.0196804
3706.51	0.0212644
3716.16	0.0183809
3725.8	0.0195513
3735.44	0.0192177
3745.08	0.019041
3754.72	0.0219095
3764.37	0.0190056
3774.01	0.018811
3783.65	0.0232897
3793.29	0.0201635
3802.94	0.0190172
3812.58	0.0235411
3822.22	0.0223248
3831.86	0.021761
3841.51	0.021985
3851.15	0.0229611
3860.79	0.0201286
3870.43	0.0204674
3880.07	0.0224782
3889.72	0.0201392
3899.36	0.0221207
3909	0.0208256
3918.64	0.0194316
3928.29	0.023156
3937.93	0.0221089
3947.57	0.0224897
3957.21	0.0223509
3966.86	0.021439
3976.5	0.0220725
3986.14	0.0212501
3995.78	0.0214994
