Measurement: Infrared, Infrared Data Processed
Mineral: Creedite
Rruff sample: R050141
Ideal chemistry: Ca_3_Al_2_(S^6+^O_4_)(OH)_2_F_8_2H_2_O
Locality: Mina de Navidad, Rodeo, Durango, Mexico
Source: Dave Bunk Minerals
Description: Radiating group of bladed crystals
Measured chemistry: Ca_3.00_Al_2.00_(S_1.00_O_4_)(OH)_2_(F_7.31_(OH)_0.69_)_Σ=8_·2H_2_O ; OH estimated by stoichiometry and charge balance OH=10-F
x	intensity
399.193	0.118325
408.835	0.087901
418.477	0.042736
428.12	0.0293384
437.762	0.0307987
447.404	0.0482626
457.047	0.0711331
466.689	0.108985
476.331	0.118463
485.974	0.106562
495.616	0.118502
505.258	0.0873231
514.901	0.0839173
524.543	0.129224
534.185	0.146819
543.828	0.171029
553.47	0.226787
563.112	0.2452
572.755	0.194549
582.397	0.167649
592.039	0.157348
601.682	0.136753
611.324	0.108549
620.966	0.110117
630.609	0.119855
640.251	0.0909041
649.893	0.0666287
659.536	0.0780986
669.178	0.0609978
678.82	0.0407515
688.463	0.0250905
698.105	0.018693
707.747	0.0166983
717.39	0.017289
727.032	0.0197191
736.674	0.0236251
746.317	0.0307813
755.959	0.0460542
765.601	0.0602771
775.244	0.051501
784.886	0.0568852
794.528	0.0730396
804.171	0.0654915
813.813	0.0448187
823.455	0.03044
833.098	0.0192901
842.74	0.0143518
852.382	0.011935
862.025	0.010781
871.667	0.00979974
881.309	0.0096716
890.952	0.00901973
900.594	0.009224
910.236	0.00951912
919.879	0.010076
929.521	0.0102313
939.163	0.0108621
948.806	0.0117353
958.448	0.0130241
968.09	0.0153752
977.733	0.0232546
987.375	0.0412235
997.017	0.0171962
1006.66	0.0214674
1016.3	0.0305822
1025.94	0.0522541
1035.59	0.111899
1045.23	0.137365
1054.87	0.0709135
1064.51	0.0809367
1074.16	0.135048
1083.8	0.147168
1093.44	0.0899009
1103.08	0.0475414
1112.72	0.0556068
1122.37	0.0996454
1132.01	0.161051
1141.65	0.1532
1151.3	0.117497
1160.94	0.113135
1170.58	0.0848141
1180.22	0.0389846
1189.86	0.013261
1199.51	0.00710973
1209.15	0.00539391
1218.79	0.00414313
1228.43	0.00350513
1238.08	0.00302405
1247.72	0.00292828
1257.36	0.00266679
1267	0.00258589
1276.64	0.00256151
1286.29	0.00251878
1295.93	0.00278622
1305.57	0.00294478
1315.21	0.0031944
1324.86	0.00334372
1334.5	0.00382018
1344.14	0.00443257
1353.78	0.00512733
1363.43	0.0054504
1373.07	0.00553119
1382.71	0.00555712
1392.35	0.00545321
1401.99	0.00543274
1411.64	0.00584851
1421.28	0.00593821
1430.92	0.00630289
1440.57	0.00618699
1450.21	0.00665061
1459.85	0.00670275
1469.49	0.00697377
1479.13	0.0076437
1488.78	0.00840023
1498.42	0.00887214
1508.06	0.0088589
1517.7	0.00874763
1527.35	0.00897572
1536.99	0.00905538
1546.63	0.00895612
1556.27	0.00846316
1565.91	0.00847987
1575.56	0.00843854
1585.2	0.0090677
1594.84	0.00996863
1604.48	0.0105599
1614.13	0.0108607
1623.77	0.0110706
1633.41	0.0114941
1643.05	0.0122211
1652.7	0.0145355
1662.34	0.0176719
1671.98	0.0173477
1681.62	0.0140087
1691.27	0.00994408
1700.91	0.00675297
1710.55	0.00526255
1720.19	0.0041189
1729.84	0.00336095
1739.48	0.00287808
1749.12	0.00230998
1758.76	0.00250136
1768.4	0.0025939
1778.05	0.00261891
1787.69	0.00275685
1797.33	0.00267584
1806.97	0.00272171
1816.62	0.00244646
1826.26	0.00292645
1835.9	0.00320104
1845.54	0.00335223
1855.18	0.00341959
1864.83	0.00389229
1874.47	0.00359009
1884.11	0.00439386
1893.75	0.0031777
1903.4	0.00405274
1913.04	0.00372067
1922.68	0.00301722
1932.32	0.00265329
1941.97	0.00456179
1951.61	0.00251644
1961.25	0.00152115
1970.89	0.00178711
1980.54	0.00545308
1990.18	0.00411987
1999.82	0.00212627
2009.46	0.00341134
2019.11	0.00187071
2028.75	0.00209767
2038.39	0.00795408
2048.03	0.0103047
2057.67	0.00658647
2067.32	0.00362975
2076.96	0.00274838
2086.6	0.00154982
2096.24	0.00114152
2105.89	0.00202074
2115.53	0.0033151
2125.17	0.0012762
2134.81	-0.00123502
2144.45	-0.000747606
2154.1	-0.00439417
2163.74	0.00192901
2173.38	-0.000571697
2183.02	0.00060994
2192.67	0.00451698
2202.31	0.00265937
2211.95	0.004343
2221.59	0.00227257
2231.24	0.00263461
2240.88	0.000812029
2250.52	0.000213317
2260.16	0.00137583
2269.8	0.000419109
2279.45	0.000814381
2289.09	0.00238854
2298.73	0.00258983
2308.38	0.00289623
2318.02	0.00302019
2327.66	0.00234661
2337.3	0.00237681
2346.94	0.00222884
2356.59	0.00322027
2366.23	0.00317225
2375.87	0.00283611
2385.51	0.00264452
2395.16	0.00301865
2404.8	0.00333347
2414.44	0.00340817
2424.08	0.00322292
2433.72	0.00397554
2443.37	0.00355507
2453.01	0.00366094
2462.65	0.00393255
2472.29	0.00365685
2481.94	0.00369051
2491.58	0.00339191
2501.22	0.00443702
2510.86	0.00340966
2520.51	0.00342969
2530.15	0.00376362
2539.79	0.00388419
2549.43	0.00443796
2559.07	0.00384296
2568.72	0.0043641
2578.36	0.00449326
2588	0.00433073
2597.64	0.00419341
2607.29	0.00400598
2616.93	0.00394916
2626.57	0.00473477
2636.21	0.00459671
2645.86	0.0037491
2655.5	0.00380477
2665.14	0.00359929
2674.78	0.00318296
2684.43	0.00344248
2694.07	0.00354614
2703.71	0.00355441
2713.35	0.00352504
2722.99	0.00374054
2732.64	0.00362941
2742.28	0.00427023
2751.92	0.00424833
2761.56	0.00379798
2771.21	0.00431029
2780.85	0.00437815
2790.49	0.00467459
2800.13	0.004317
2809.78	0.00479823
2819.42	0.0053564
2829.06	0.0060082
2838.7	0.00587779
2848.34	0.00563857
2857.99	0.00568472
2867.63	0.0056419
2877.27	0.00541942
2886.91	0.00593
2896.56	0.00603442
2906.2	0.00676545
2915.84	0.00701934
2925.48	0.00702329
2935.13	0.00764473
2944.77	0.00700835
2954.41	0.00784888
2964.05	0.00781131
2973.7	0.0089226
2983.34	0.00818209
2992.98	0.00977656
3002.62	0.0104262
3012.26	0.0120051
3021.91	0.0127934
3031.55	0.0134274
3041.19	0.0149151
3050.83	0.0152242
3060.48	0.0156415
3070.12	0.017367
3079.76	0.0178398
3089.4	0.0182453
3099.05	0.0193884
3108.69	0.0213973
3118.33	0.023575
3127.97	0.0262219
3137.61	0.0283438
3147.26	0.0312679
3156.9	0.0352607
3166.54	0.0388935
3176.18	0.0424238
3185.83	0.0473784
3195.47	0.0532265
3205.11	0.0624525
3214.75	0.074417
3224.4	0.0893838
3234.04	0.104995
3243.68	0.119329
3253.32	0.126055
3262.97	0.122267
3272.61	0.111916
3282.25	0.102416
3291.89	0.0987207
3301.53	0.102896
3311.18	0.116594
3320.82	0.125369
3330.46	0.108552
3340.1	0.078972
3349.75	0.0578246
3359.39	0.0460903
3369.03	0.038068
3378.67	0.0334014
3388.32	0.0292821
3397.96	0.0265639
3407.6	0.0258785
3417.24	0.0245993
3426.89	0.0232566
3436.53	0.0230507
3446.17	0.0213404
3455.81	0.0204354
3465.45	0.0196377
3475.1	0.0181857
3484.74	0.0204725
3494.38	0.0240872
3504.02	0.0367989
3513.67	0.0720366
3523.31	0.105574
3532.95	0.0520763
3542.59	0.023547
3552.24	0.0111456
3561.88	0.00640951
3571.52	0.00356874
3581.16	0.00398982
3590.8	0.00189589
3600.45	0.0018305
3610.09	-0.000938377
3619.73	-0.000183033
3629.37	-0.0016181
3639.02	-0.000930732
3648.66	7.11683e-05
3658.3	-0.00187003
3667.94	-0.00188929
3677.59	-0.003421
3687.23	-0.00312748
3696.87	-0.00206436
3706.51	-0.00277548
3716.16	-0.00160422
3725.8	-0.00404096
3735.44	-0.00222044
3745.08	-0.0019269
3754.72	-0.00460583
3764.37	-0.00248483
3774.01	-0.00286527
3783.65	-0.00374532
3793.29	-0.00200075
3802.94	-0.00328408
3812.58	-0.0025704
3822.22	-0.00199875
3831.86	-0.00323679
3841.51	-0.00196843
3851.15	-0.0026124
3860.79	-0.00254214
3870.43	-0.00208076
3880.07	-0.00365107
3889.72	-0.00358129
3899.36	-0.00243262
3909	-0.00268913
3918.64	-0.00332399
3928.29	-0.00221072
3937.93	-0.00362396
3947.57	-0.0038337
3957.21	-0.00182039
3966.86	-0.00319347
3976.5	-0.00226872
3986.14	-0.00315567
3995.78	-0.00184658
