Measurement: Infrared, Infrared Data Processed
Mineral: Creedite
Rruff sample: R050141
Ideal chemistry: Ca_3_Al_2_(S^6+^O_4_)(OH)_2_F_8_2H_2_O
Locality: Mina de Navidad, Rodeo, Durango, Mexico
Source: Dave Bunk Minerals
Description: Radiating group of bladed crystals
Measured chemistry: Ca_3.00_Al_2.00_(S_1.00_O_4_)(OH)_2_(F_7.31_(OH)_0.69_)_Σ=8_·2H_2_O ; OH estimated by stoichiometry and charge balance OH=10-F
x	intensity
50.1401	0.015739
52.0686	0.0118505
53.9971	0.0108887
55.9255	0.0180204
57.854	0.0229444
59.7825	0.0246163
61.7109	0.0244349
63.6394	0.0277174
65.5679	0.0285137
67.4963	0.0290061
69.4248	0.0296711
71.3533	0.0329979
73.2817	0.0343027
75.2102	0.0321416
77.1387	0.028643
79.0671	0.0279865
80.9956	0.0289966
82.9241	0.0307223
84.8525	0.0313994
86.781	0.0308403
88.7095	0.0313595
90.6379	0.0333548
92.5664	0.0348096
94.4948	0.0350877
96.4233	0.0357957
98.3518	0.0377857
100.28	0.0394783
102.209	0.041105
104.137	0.0422556
106.066	0.0442492
107.994	0.0463666
109.923	0.0475977
111.851	0.0475635
113.779	0.0453817
115.708	0.0423288
117.636	0.0393748
119.565	0.036865
121.493	0.0359163
123.422	0.0344501
125.35	0.0314651
127.279	0.031561
129.207	0.0345506
131.136	0.0379797
133.064	0.0413835
134.993	0.0439488
136.921	0.0447854
138.85	0.0439773
140.778	0.0437073
142.707	0.0452397
144.635	0.0481867
146.563	0.0515807
148.492	0.0545547
150.42	0.0568582
152.349	0.0587185
154.277	0.0598324
156.206	0.0594058
158.134	0.0561636
160.063	0.0521775
161.991	0.0521203
163.92	0.0550351
165.848	0.0553446
167.777	0.0514611
169.705	0.0461642
171.633	0.0431027
173.562	0.0445484
175.49	0.0489578
177.419	0.053881
179.347	0.05858
181.276	0.0620811
183.204	0.0625031
185.133	0.0612435
187.061	0.0598372
188.99	0.0573128
190.918	0.0551005
192.847	0.0542202
194.775	0.0542231
196.704	0.0539985
198.632	0.0530172
200.56	0.0513667
202.489	0.0501013
204.417	0.0502458
206.346	0.0527218
208.274	0.0572448
210.203	0.0613126
212.131	0.0642534
214.06	0.0660207
215.988	0.0660351
217.917	0.0658253
219.845	0.0664851
221.774	0.0678775
223.702	0.0695054
225.631	0.0706204
227.559	0.0708762
229.488	0.0701125
231.416	0.0686399
233.344	0.0674554
235.273	0.0665476
237.201	0.0661785
239.13	0.0671502
241.058	0.0687488
242.987	0.0696787
244.915	0.0689669
246.844	0.0660123
248.772	0.0618044
250.701	0.057122
252.629	0.0522641
254.558	0.0466138
256.486	0.0418807
258.414	0.0396734
260.343	0.0403528
262.271	0.0439898
264.2	0.0500181
266.128	0.0575
268.057	0.0645442
269.985	0.0691081
271.914	0.0706001
273.842	0.0699558
275.771	0.0683825
277.699	0.0658249
279.628	0.0628147
281.556	0.0609906
283.485	0.0596624
285.413	0.0587388
287.341	0.0584228
289.27	0.0580352
291.198	0.0574301
293.127	0.0570724
295.055	0.0569926
296.984	0.0570996
298.912	0.057027
300.841	0.0571156
302.769	0.057189
304.698	0.0570308
306.626	0.0570314
308.555	0.0572645
310.483	0.0569843
312.411	0.0558811
314.34	0.0536111
316.269	0.0511917
318.197	0.0486039
320.125	0.0456892
322.054	0.0428064
323.982	0.0404214
325.911	0.0381955
327.839	0.0359145
329.768	0.0337401
331.696	0.0318179
333.625	0.0299533
335.553	0.0289671
337.482	0.0286262
339.41	0.028556
341.339	0.0287927
343.267	0.0293364
345.195	0.0299128
347.124	0.030891
349.052	0.0321036
350.981	0.0334576
352.909	0.0347579
354.838	0.0364436
356.766	0.0388232
358.695	0.0415591
360.623	0.0441385
362.552	0.0471801
364.48	0.0504879
366.409	0.0542602
368.337	0.0583217
370.265	0.0625041
372.194	0.0661653
374.122	0.0695449
376.051	0.0718317
377.979	0.0731811
379.908	0.0740217
381.836	0.0747374
383.765	0.0754989
385.693	0.0756165
387.622	0.0744983
389.55	0.0731289
391.479	0.0716805
393.407	0.0704798
395.336	0.069781
397.264	0.0694803
399.192	0.0691046
401.121	0.0683737
403.049	0.0669896
404.978	0.06506
406.906	0.0624922
408.835	0.0587632
410.763	0.0538536
412.692	0.048556
414.62	0.0436654
416.549	0.0401316
418.477	0.0375392
420.406	0.035567
422.334	0.0340978
424.262	0.0331958
426.191	0.0328809
428.12	0.0327826
430.048	0.0327429
431.976	0.0332301
433.905	0.033838
435.833	0.034561
437.762	0.0353662
439.69	0.0365907
441.619	0.0379481
443.547	0.0397835
445.476	0.0419132
447.404	0.0448139
449.333	0.0479561
451.261	0.0506251
453.19	0.0525274
455.118	0.0536426
457.046	0.0552674
458.975	0.0578456
460.903	0.0609841
462.832	0.0647749
464.76	0.0686715
466.689	0.0712897
468.617	0.0716814
470.546	0.0709132
472.474	0.0712322
474.403	0.0729949
476.331	0.0747617
478.26	0.0753385
480.188	0.0744606
482.116	0.0723705
484.045	0.070552
485.974	0.0697998
487.902	0.0698494
489.83	0.0712313
491.759	0.0732164
493.687	0.0752279
495.616	0.0758854
497.544	0.0749943
499.473	0.0726958
501.401	0.0697115
503.33	0.0664233
505.258	0.0632081
507.187	0.0606137
509.115	0.0592683
511.043	0.0591105
512.972	0.0600319
514.9	0.0619285
516.829	0.0650662
518.757	0.0688122
520.686	0.0726052
522.614	0.0764625
524.543	0.0801896
526.471	0.0832486
528.4	0.0856415
530.328	0.0865038
532.257	0.0865043
534.185	0.0863485
536.114	0.08598
538.042	0.0861427
539.971	0.0876326
541.899	0.0902122
543.827	0.0934401
545.756	0.0972189
547.684	0.101624
549.613	0.10606
551.541	0.109724
553.47	0.112392
555.398	0.115068
557.327	0.118148
559.255	0.121112
561.184	0.123001
563.112	0.122855
565.041	0.121159
566.969	0.118384
568.898	0.114819
570.826	0.111643
572.755	0.108685
574.683	0.105852
576.611	0.103707
578.54	0.102108
580.468	0.100738
582.397	0.0994141
584.325	0.0985184
586.254	0.0980745
588.182	0.0976614
590.111	0.0977287
592.039	0.097282
593.968	0.0958294
595.896	0.0942533
597.824	0.0929294
599.753	0.0909299
601.682	0.0881809
603.61	0.0857399
605.538	0.083832
607.467	0.0810475
609.395	0.077918
611.324	0.0750755
613.252	0.0727907
615.181	0.0709519
617.109	0.0700271
619.038	0.0715068
620.966	0.0748764
622.894	0.07941
624.823	0.0846025
626.751	0.0876836
628.68	0.0875936
630.608	0.085374
632.537	0.0830435
634.465	0.0811816
636.394	0.0795846
638.322	0.0771345
640.251	0.073793
642.179	0.0700719
644.108	0.0665478
646.036	0.0637829
647.965	0.0621124
649.893	0.0614889
651.822	0.0624478
653.75	0.0642232
655.678	0.0663286
657.607	0.0679446
659.535	0.0684664
661.464	0.0679279
663.392	0.0667502
665.321	0.065248
667.249	0.0636614
669.178	0.0617474
671.106	0.0596369
673.035	0.0573207
674.963	0.0552622
676.892	0.0532668
678.82	0.051306
680.749	0.0487748
682.677	0.0463622
684.606	0.0445969
686.534	0.0433009
688.462	0.0422701
690.391	0.0417383
692.319	0.0408906
694.248	0.0405474
696.176	0.0403537
698.105	0.0401131
700.033	0.0403545
