Measurement: Infrared, Infrared Data Processed
Mineral: Crocoite
Rruff sample: R050044
Ideal chemistry: Pb^2+^Cr^6+^O_4_
Locality: Red Ledge mine, Dundas, Tasmania
Source: Eugene Schlepp
Description: Red crystal fragment
Measured chemistry: Pb_1.02_Cr_0.99_O_4_
x	intensity
399.193	0
408.835	0.20121
418.477	0.235029
428.12	0.230964
437.762	0.256291
447.404	0.265265
457.047	0.275843
466.689	0.287245
476.331	0.298792
485.974	0.309493
495.616	0.322488
505.258	0.333901
514.901	0.346406
524.543	0.353858
534.185	0.367281
543.828	0.377443
553.47	0.390345
563.112	0.40102
572.755	0.411883
582.397	0.424143
592.039	0.438214
601.682	0.452743
611.324	0.46537
620.966	0.480057
630.609	0.496657
640.251	0.512113
649.893	0.531582
659.536	0.5483
669.178	0.569265
678.82	0.589607
688.463	0.611634
698.105	0.634088
707.747	0.657824
717.39	0.681416
727.032	0.700967
736.674	0.720514
746.317	0.742423
755.959	0.757685
765.601	0.768324
775.244	0.765284
784.886	0.752339
794.528	0.745589
804.171	0.745197
813.813	0.680221
823.455	0.574968
833.098	0.519159
842.74	0.550791
852.382	0.483264
862.025	0.426222
871.667	0.358135
881.309	0.29811
890.952	0.248991
900.594	0.199116
910.236	0.160534
919.879	0.132686
929.521	0.0874495
939.163	0.0460904
948.806	0.029212
958.448	0.0218747
968.09	0.0191427
977.733	0.0179599
987.375	0.0179996
997.017	0.0185407
1006.66	0.0200716
1016.3	0.0216889
1025.94	0.0238381
1035.59	0.0260556
1045.23	0.0287556
1054.87	0.0312171
1064.51	0.0339068
1074.16	0.0371675
1083.8	0.0404569
1093.44	0.0453016
1103.08	0.0495214
1112.72	0.0536082
1122.37	0.0585458
1132.01	0.0642089
1141.65	0.0702347
1151.3	0.0760079
1160.94	0.0818042
1170.58	0.0874576
1180.22	0.0932879
1189.86	0.0985541
1199.51	0.102799
1209.15	0.10655
1218.79	0.109956
1228.43	0.114174
1238.08	0.117824
1247.72	0.122512
1257.36	0.12758
1267	0.132591
1276.64	0.137157
1286.29	0.142279
1295.93	0.14672
1305.57	0.151379
1315.21	0.155832
1324.86	0.160675
1334.5	0.165626
1344.14	0.170158
1353.78	0.174475
1363.43	0.1796
1373.07	0.184166
1382.71	0.18901
1392.35	0.19323
1401.99	0.198057
1411.64	0.20251
1421.28	0.206687
1430.92	0.210029
1440.57	0.214164
1450.21	0.217891
1459.85	0.220743
1469.49	0.223046
1479.13	0.227112
1488.78	0.231407
1498.42	0.236268
1508.06	0.242218
1517.7	0.246631
1527.35	0.251113
1536.99	0.255698
1546.63	0.260026
1556.27	0.263295
1565.91	0.265959
1575.56	0.270073
1585.2	0.272744
1594.84	0.276997
1604.48	0.281877
1614.13	0.285349
1623.77	0.290143
1633.41	0.294214
1643.05	0.297697
1652.7	0.301379
1662.34	0.302941
1671.98	0.304447
1681.62	0.30512
1691.27	0.306513
1700.91	0.309167
1710.55	0.308852
1720.19	0.310741
1729.84	0.312169
1739.48	0.31258
1749.12	0.311978
1758.76	0.313629
1768.4	0.314576
1778.05	0.315649
1787.69	0.317171
1797.33	0.318738
1806.97	0.320844
1816.62	0.323464
1826.26	0.326456
1835.9	0.329201
1845.54	0.332236
1855.18	0.334432
1864.83	0.337807
1874.47	0.340908
1884.11	0.344161
1893.75	0.348483
1903.4	0.349746
1913.04	0.352996
1922.68	0.35655
1932.32	0.360171
1941.97	0.361395
1951.61	0.365159
1961.25	0.369593
1970.89	0.371152
1980.54	0.376398
1990.18	0.376507
1999.82	0.377001
2009.46	0.378797
2019.11	0.379793
2028.75	0.38566
2038.39	0.387513
2048.03	0.388404
2057.67	0.389687
2067.32	0.392244
2076.96	0.391703
2086.6	0.39508
2096.24	0.397415
2105.89	0.400111
2115.53	0.40314
2125.17	0.403392
2134.81	0.406684
2144.45	0.405382
2154.1	0.41163
2163.74	0.410218
2173.38	0.415033
2183.02	0.420117
2192.67	0.419728
2202.31	0.416648
2211.95	0.422092
2221.59	0.421187
2231.24	0.423332
2240.88	0.42495
2250.52	0.426903
2260.16	0.429334
2269.8	0.430578
2279.45	0.431967
2289.09	0.433494
2298.73	0.43466
2308.38	0.435347
2318.02	0.437518
2327.66	0.439131
2337.3	0.440624
2346.94	0.441997
2356.59	0.444456
2366.23	0.446842
2375.87	0.44806
2385.51	0.449718
2395.16	0.451262
2404.8	0.453127
2414.44	0.455682
2424.08	0.457528
2433.72	0.460248
2443.37	0.461552
2453.01	0.462453
2462.65	0.465333
2472.29	0.466735
2481.94	0.46757
2491.58	0.470277
2501.22	0.472093
2510.86	0.473642
2520.51	0.47563
2530.15	0.4779
2539.79	0.478963
2549.43	0.480539
2559.07	0.482653
2568.72	0.482558
2578.36	0.485734
2588	0.487014
2597.64	0.488871
2607.29	0.489142
2616.93	0.490885
2626.57	0.492284
2636.21	0.493285
2645.86	0.494028
2655.5	0.496793
2665.14	0.497284
2674.78	0.499242
2684.43	0.500824
2694.07	0.503043
2703.71	0.505351
2713.35	0.507921
2722.99	0.507982
2732.64	0.509831
2742.28	0.512581
2751.92	0.513821
2761.56	0.514926
2771.21	0.516622
2780.85	0.518877
2790.49	0.52085
2800.13	0.521878
2809.78	0.524817
2819.42	0.526406
2829.06	0.527295
2838.7	0.529918
2848.34	0.529651
2857.99	0.530718
2867.63	0.532331
2877.27	0.534378
2886.91	0.537713
2896.56	0.537833
2906.2	0.539783
2915.84	0.539288
2925.48	0.536916
2935.13	0.538353
2944.77	0.541856
2954.41	0.545044
2964.05	0.547077
2973.7	0.548473
2983.34	0.549691
2992.98	0.551862
3002.62	0.552759
3012.26	0.55611
3021.91	0.558449
3031.55	0.558213
3041.19	0.562623
3050.83	0.564372
3060.48	0.565185
3070.12	0.566882
3079.76	0.568585
3089.4	0.571881
3099.05	0.573456
3108.69	0.575554
3118.33	0.576584
3127.97	0.57967
3137.61	0.579895
3147.26	0.581121
3156.9	0.583028
3166.54	0.584318
3176.18	0.586825
3185.83	0.588056
3195.47	0.587483
3205.11	0.592455
3214.75	0.594129
3224.4	0.595397
3234.04	0.596281
3243.68	0.598626
3253.32	0.599417
3262.97	0.601791
3272.61	0.601206
3282.25	0.605041
3291.89	0.605118
3301.53	0.605623
3311.18	0.607974
3320.82	0.607986
3330.46	0.612853
3340.1	0.611997
3349.75	0.612498
3359.39	0.613563
3369.03	0.618011
3378.67	0.618534
3388.32	0.618739
3397.96	0.620731
3407.6	0.623311
3417.24	0.625576
3426.89	0.625316
3436.53	0.625381
3446.17	0.62681
3455.81	0.628798
3465.45	0.628815
3475.1	0.628931
3484.74	0.632225
3494.38	0.632167
3504.02	0.636048
3513.67	0.635537
3523.31	0.639575
3532.95	0.637675
3542.59	0.640105
3552.24	0.64159
3561.88	0.64011
3571.52	0.643352
3581.16	0.646269
3590.8	0.644697
3600.45	0.645226
3610.09	0.6477
3619.73	0.648675
3629.37	0.648841
3639.02	0.653596
3648.66	0.649199
3658.3	0.655757
3667.94	0.658047
3677.59	0.655835
3687.23	0.658778
3696.87	0.657968
3706.51	0.664385
3716.16	0.662789
3725.8	0.664217
3735.44	0.66588
3745.08	0.666195
3754.72	0.667493
3764.37	0.672018
3774.01	0.673561
3783.65	0.671581
3793.29	0.675016
3802.94	0.674305
3812.58	0.674011
3822.22	0.676186
3831.86	0.678835
3841.51	0.680789
3851.15	0.68405
3860.79	0.687225
3870.43	0.687535
3880.07	0.686561
3889.72	0.685557
3899.36	0.693562
3909	0.693037
3918.64	0.693912
3928.29	0.695096
3937.93	0.69556
3947.57	0.697057
3957.21	0.697569
3966.86	0.700274
3976.5	0.703336
3986.14	0.702772
3995.78	0.70504
