Measurement: Infrared, Infrared Data Processed
Mineral: Crocoite
Rruff sample: R040053
Ideal chemistry: Pb^2+^Cr^6+^O_4_
Locality: Dundas, Tasmania
Source: Bob Downs
Description: Reddish-orange prismatic crystal
Measured chemistry: (Pb_.995_Mn_.005_)CrO_4_
x	intensity
399.193	0
408.835	0.152474
418.477	0.172594
428.12	0.168353
437.762	0.181972
447.404	0.18913
457.047	0.194931
466.689	0.202533
476.331	0.208931
485.974	0.215927
495.616	0.222699
505.258	0.229202
514.901	0.235818
524.543	0.24185
534.185	0.247109
543.828	0.254633
553.47	0.263514
563.112	0.268154
572.755	0.274956
582.397	0.283721
592.039	0.291207
601.682	0.300243
611.324	0.308897
620.966	0.319128
630.609	0.32768
640.251	0.338376
649.893	0.349786
659.536	0.360833
669.178	0.373638
678.82	0.387245
688.463	0.402168
698.105	0.41758
707.747	0.434453
717.39	0.451881
727.032	0.468446
736.674	0.486205
746.317	0.504295
755.959	0.522402
765.601	0.538859
775.244	0.547261
784.886	0.549704
794.528	0.552591
804.171	0.564099
813.813	0.549609
823.455	0.488122
833.098	0.436634
842.74	0.456941
852.382	0.414327
862.025	0.369231
871.667	0.316142
881.309	0.264338
890.952	0.221645
900.594	0.177092
910.236	0.140159
919.879	0.113921
929.521	0.073862
939.163	0.039053
948.806	0.0246796
958.448	0.0190018
968.09	0.01667
977.733	0.0159758
987.375	0.0166848
997.017	0.0179638
1006.66	0.019626
1016.3	0.0216605
1025.94	0.0239507
1035.59	0.0268319
1045.23	0.0300029
1054.87	0.0330155
1064.51	0.036121
1074.16	0.040008
1083.8	0.0445188
1093.44	0.0492027
1103.08	0.0532794
1112.72	0.0570038
1122.37	0.0613674
1132.01	0.0663785
1141.65	0.0711934
1151.3	0.075939
1160.94	0.0807355
1170.58	0.0845203
1180.22	0.0882422
1189.86	0.0914662
1199.51	0.0944314
1209.15	0.0967763
1218.79	0.0996335
1228.43	0.102217
1238.08	0.10491
1247.72	0.108026
1257.36	0.110913
1267	0.113866
1276.64	0.116837
1286.29	0.120208
1295.93	0.122998
1305.57	0.126521
1315.21	0.129595
1324.86	0.132719
1334.5	0.135655
1344.14	0.138457
1353.78	0.14127
1363.43	0.14434
1373.07	0.147423
1382.71	0.150429
1392.35	0.153621
1401.99	0.157752
1411.64	0.161144
1421.28	0.164883
1430.92	0.167275
1440.57	0.169891
1450.21	0.171502
1459.85	0.173032
1469.49	0.172965
1479.13	0.174066
1488.78	0.176332
1498.42	0.179147
1508.06	0.18242
1517.7	0.185444
1527.35	0.188381
1536.99	0.191169
1546.63	0.193465
1556.27	0.195296
1565.91	0.196325
1575.56	0.198236
1585.2	0.199576
1594.84	0.201876
1604.48	0.204125
1614.13	0.20638
1623.77	0.20843
1633.41	0.210479
1643.05	0.212786
1652.7	0.214578
1662.34	0.215647
1671.98	0.217026
1681.62	0.217316
1691.27	0.218629
1700.91	0.220362
1710.55	0.220541
1720.19	0.221675
1729.84	0.222813
1739.48	0.223585
1749.12	0.223102
1758.76	0.222681
1768.4	0.222916
1778.05	0.224218
1787.69	0.225067
1797.33	0.226338
1806.97	0.227508
1816.62	0.228843
1826.26	0.230867
1835.9	0.232243
1845.54	0.234097
1855.18	0.235635
1864.83	0.237702
1874.47	0.239015
1884.11	0.241361
1893.75	0.242648
1903.4	0.245588
1913.04	0.245711
1922.68	0.250412
1932.32	0.248743
1941.97	0.252593
1951.61	0.253416
1961.25	0.25681
1970.89	0.256452
1980.54	0.260726
1990.18	0.261123
1999.82	0.261056
2009.46	0.261068
2019.11	0.261548
2028.75	0.263679
2038.39	0.266689
2048.03	0.268802
2057.67	0.270464
2067.32	0.270164
2076.96	0.271549
2086.6	0.273658
2096.24	0.272788
2105.89	0.275412
2115.53	0.277025
2125.17	0.275909
2134.81	0.279028
2144.45	0.276471
2154.1	0.275167
2163.74	0.279453
2173.38	0.281967
2183.02	0.283295
2192.67	0.284379
2202.31	0.287434
2211.95	0.288251
2221.59	0.287532
2231.24	0.289663
2240.88	0.291282
2250.52	0.293099
2260.16	0.29554
2269.8	0.296996
2279.45	0.297455
2289.09	0.298426
2298.73	0.299166
2308.38	0.300035
2318.02	0.301598
2327.66	0.303569
2337.3	0.304802
2346.94	0.305086
2356.59	0.307523
2366.23	0.308255
2375.87	0.308119
2385.51	0.307865
2395.16	0.30957
2404.8	0.309958
2414.44	0.311878
2424.08	0.313591
2433.72	0.314389
2443.37	0.314384
2453.01	0.316011
2462.65	0.31693
2472.29	0.317922
2481.94	0.319495
2491.58	0.319939
2501.22	0.320729
2510.86	0.32209
2520.51	0.324241
2530.15	0.325721
2539.79	0.325809
2549.43	0.327463
2559.07	0.328261
2568.72	0.330023
2578.36	0.332012
2588	0.331601
2597.64	0.333012
2607.29	0.334322
2616.93	0.335126
2626.57	0.336597
2636.21	0.337146
2645.86	0.337693
2655.5	0.339755
2665.14	0.340502
2674.78	0.340586
2684.43	0.342179
2694.07	0.343197
2703.71	0.343849
2713.35	0.345948
2722.99	0.347101
2732.64	0.34809
2742.28	0.349417
2751.92	0.350195
2761.56	0.350952
2771.21	0.352384
2780.85	0.354067
2790.49	0.354545
2800.13	0.355205
2809.78	0.357115
2819.42	0.358996
2829.06	0.359967
2838.7	0.361284
2848.34	0.363551
2857.99	0.362993
2867.63	0.363061
2877.27	0.364629
2886.91	0.366036
2896.56	0.367585
2906.2	0.368235
2915.84	0.368156
2925.48	0.369795
2935.13	0.370422
2944.77	0.369408
2954.41	0.369664
2964.05	0.372834
2973.7	0.372352
2983.34	0.372657
2992.98	0.374351
3002.62	0.374771
3012.26	0.377449
3021.91	0.378763
3031.55	0.38013
3041.19	0.382218
3050.83	0.382404
3060.48	0.382499
3070.12	0.383996
3079.76	0.38664
3089.4	0.389062
3099.05	0.388469
3108.69	0.388886
3118.33	0.39255
3127.97	0.39185
3137.61	0.393621
3147.26	0.394357
3156.9	0.396581
3166.54	0.397023
3176.18	0.397701
3185.83	0.397794
3195.47	0.39772
3205.11	0.400855
3214.75	0.401251
3224.4	0.402355
3234.04	0.403898
3243.68	0.405426
3253.32	0.407147
3262.97	0.407267
3272.61	0.406956
3282.25	0.409461
3291.89	0.410489
3301.53	0.41134
3311.18	0.411349
3320.82	0.412979
3330.46	0.412486
3340.1	0.414036
3349.75	0.416074
3359.39	0.414541
3369.03	0.415944
3378.67	0.415758
3388.32	0.421521
3397.96	0.420705
3407.6	0.419809
3417.24	0.421917
3426.89	0.420208
3436.53	0.422476
3446.17	0.424797
3455.81	0.42648
3465.45	0.424656
3475.1	0.427168
3484.74	0.427143
3494.38	0.429978
3504.02	0.428139
3513.67	0.430969
3523.31	0.431743
3532.95	0.432284
3542.59	0.431788
3552.24	0.433907
3561.88	0.4362
3571.52	0.432973
3581.16	0.435974
3590.8	0.436656
3600.45	0.437465
3610.09	0.438364
3619.73	0.441963
3629.37	0.438441
3639.02	0.441944
3648.66	0.44268
3658.3	0.443644
3667.94	0.445058
3677.59	0.44824
3687.23	0.447221
3696.87	0.449584
3706.51	0.451343
3716.16	0.448419
3725.8	0.453923
3735.44	0.453627
3745.08	0.455883
3754.72	0.451716
3764.37	0.458354
3774.01	0.458396
3783.65	0.457974
3793.29	0.460636
3802.94	0.461632
3812.58	0.463763
3822.22	0.463273
3831.86	0.462114
3841.51	0.463903
3851.15	0.466515
3860.79	0.467014
3870.43	0.470192
3880.07	0.468405
3889.72	0.469249
3899.36	0.471232
3909	0.4743
3918.64	0.475604
3928.29	0.473672
3937.93	0.47594
3947.57	0.480281
3957.21	0.479504
3966.86	0.477776
3976.5	0.482177
3986.14	0.47792
3995.78	0.483783
