Measurement: Infrared, Infrared Data Processed
Mineral: Cryolite
Rruff sample: R050287
Ideal chemistry: Na_3_AlF_6_
Locality: Ivigtut, Greenland
Source: Marcus Origlieri
Description: Colorless fragment
Measured chemistry: Na_3.00_Al_1.00_F_6.00_
x	intensity
399.193	0.165291
408.835	0.0980649
418.477	0.0673979
428.12	0.0264924
437.762	0.0164166
447.404	0.013003
457.047	0.0141136
466.689	0.015447
476.331	0.0196065
485.974	0.0285672
495.616	0.0404167
505.258	0.0576605
514.901	0.0828102
524.543	0.129387
534.185	0.195856
543.828	0.275657
553.47	0.343817
563.112	0.365697
572.755	0.317298
582.397	0.243713
592.039	0.213281
601.682	0.18528
611.324	0.131291
620.966	0.0993239
630.609	0.0754346
640.251	0.0574245
649.893	0.0422835
659.536	0.0287828
669.178	0.0186912
678.82	0.0121553
688.463	0.00853625
698.105	0.00705069
707.747	0.00582313
717.39	0.00481083
727.032	0.00457318
736.674	0.00340492
746.317	0.00325181
755.959	0.00276339
765.601	0.00285725
775.244	0.00263987
784.886	0.00210474
794.528	0.00209272
804.171	0.00213768
813.813	0.00209362
823.455	0.00196248
833.098	0.00199054
842.74	0.00189335
852.382	0.00169242
862.025	0.00145918
871.667	0.000933311
881.309	0.00128016
890.952	0.00154484
900.594	0.00159844
910.236	0.00185595
919.879	0.00194109
929.521	0.00232004
939.163	0.00242631
948.806	0.00322658
958.448	0.00382775
968.09	0.00421017
977.733	0.00398364
987.375	0.00391244
997.017	0.00342975
1006.66	0.00269823
1016.3	0.00195145
1025.94	0.00167628
1035.59	0.00112788
1045.23	0.000872195
1054.87	0.000981669
1064.51	0.00072533
1074.16	0.00044072
1083.8	0.000343071
1093.44	-0.000245396
1103.08	-0.000655324
1112.72	-0.000601587
1122.37	-0.000400617
1132.01	-0.000310094
1141.65	-0.000564897
1151.3	-0.00080635
1160.94	-0.00113533
1170.58	-0.00138231
1180.22	-0.00122894
1189.86	-0.00113187
1199.51	-0.00122987
1209.15	-0.00105355
1218.79	-0.00092208
1228.43	-0.00115508
1238.08	-0.00099105
1247.72	-0.00113592
1257.36	-0.00125353
1267	-0.00128186
1276.64	-0.00102433
1286.29	-0.00115287
1295.93	-0.000958064
1305.57	-0.000790005
1315.21	-0.000481686
1324.86	-0.000659056
1334.5	-0.000582889
1344.14	-0.000494906
1353.78	-0.000904549
1363.43	-0.000649408
1373.07	-0.000989429
1382.71	-0.000635344
1392.35	-0.000695305
1401.99	-0.000581416
1411.64	-0.000342939
1421.28	-0.000222379
1430.92	-0.00053188
1440.57	-0.00126771
1450.21	-0.00146587
1459.85	-0.00197837
1469.49	-0.00186653
1479.13	-0.000758418
1488.78	-0.000310798
1498.42	-0.000406843
1508.06	-0.000150886
1517.7	-0.000278233
1527.35	-0.000216158
1536.99	-0.000111724
1546.63	5.69368e-05
1556.27	-0.00036313
1565.91	-0.000393798
1575.56	-0.00062283
1585.2	-0.000708395
1594.84	-0.00111247
1604.48	-0.00098845
1614.13	-0.00120249
1623.77	-0.00130365
1633.41	-0.00111689
1643.05	-0.000972198
1652.7	-0.000877001
1662.34	-0.00141879
1671.98	-0.00124039
1681.62	-0.000947555
1691.27	-0.00102714
1700.91	-0.00136272
1710.55	-0.00243613
1720.19	-0.00218344
1729.84	-0.00266307
1739.48	-0.00471142
1749.12	-0.00353914
1758.76	-0.00148992
1768.4	9.3751e-07
1778.05	-0.0002484
1787.69	0.000243013
1797.33	-7.09242e-05
1806.97	0.00030451
1816.62	0.000586245
1826.26	-0.000203413
1835.9	0.000686954
1845.54	0.000349611
1855.18	0.00098504
1864.83	0.000861491
1874.47	0.00101624
1884.11	0.000964023
1893.75	0.00117378
1903.4	0.000190107
1913.04	-3.2897e-05
1922.68	0.00144088
1932.32	0.000837746
1941.97	0.00256606
1951.61	0.00125853
1961.25	0.0024389
1970.89	0.00399039
1980.54	0.00527036
1990.18	0.00374341
1999.82	0.00257418
2009.46	0.0034216
2019.11	0.00441378
2028.75	0.00467541
2038.39	0.00176915
2048.03	0.00325861
2057.67	0.00246295
2067.32	0.00298155
2076.96	0.00396311
2086.6	-0.000205661
2096.24	0.000698658
2105.89	0.000639376
2115.53	0.00170856
2125.17	-0.000746876
2134.81	0.00109973
2144.45	0.00221584
2154.1	0.000580379
2163.74	0.0080377
2173.38	0.0034102
2183.02	0.00521851
2192.67	0.00498284
2202.31	0.00277892
2211.95	0.00336849
2221.59	0.0038505
2231.24	0.00314305
2240.88	0.00259096
2250.52	0.00132412
2260.16	0.00201357
2269.8	0.00180288
2279.45	0.00202666
2289.09	0.00282217
2298.73	0.0023115
2308.38	0.00206847
2318.02	0.00162967
2327.66	0.000236492
2337.3	8.13168e-06
2346.94	-0.000772834
2356.59	-0.000248353
2366.23	0.000402677
2375.87	-0.000678598
2385.51	-0.00029265
2395.16	-0.000208699
2404.8	0.000769919
2414.44	-0.000115514
2424.08	0.000922152
2433.72	-0.000334599
2443.37	0.00222107
2453.01	0.00105145
2462.65	0.000251595
2472.29	0.000321081
2481.94	0.00110286
2491.58	-0.000100961
2501.22	-7.41711e-05
2510.86	0.000814035
2520.51	-0.000752541
2530.15	0.000168184
2539.79	-0.000951534
2549.43	-0.000492706
2559.07	0.000122108
2568.72	0.000289248
2578.36	-0.000496162
2588	-0.00102349
2597.64	0.000559425
2607.29	1.25266e-05
2616.93	0.000203092
2626.57	-0.00147054
2636.21	0.000622265
2645.86	-0.000437818
2655.5	-0.00119144
2665.14	-0.000976086
2674.78	-0.000719335
2684.43	-0.00117723
2694.07	-0.00199891
2703.71	-0.000592971
2713.35	-0.00078524
2722.99	-0.00074668
2732.64	-0.00120406
2742.28	-0.00159842
2751.92	-0.000124831
2761.56	-0.000859317
2771.21	-0.00107017
2780.85	-0.00107493
2790.49	-0.00124106
2800.13	-0.000261479
2809.78	-1.43499e-05
2819.42	-0.00201465
2829.06	-0.0013218
2838.7	-0.00112234
2848.34	-0.000786126
2857.99	-0.000475751
2867.63	-0.00120991
2877.27	-0.00078769
2886.91	-0.00241207
2896.56	-0.00202966
2906.2	-0.00237334
2915.84	-0.000894509
2925.48	-0.00162758
2935.13	-0.00106526
2944.77	-0.000434442
2954.41	-0.00261235
2964.05	0.000883021
2973.7	-0.00218344
2983.34	-0.00142884
2992.98	-0.000632095
3002.62	-0.000238284
3012.26	0.000726221
3021.91	-9.2444e-05
3031.55	-0.000905379
3041.19	-0.000889902
3050.83	-0.00214897
3060.48	-0.00160586
3070.12	-0.0029871
3079.76	-0.00265199
3089.4	0.000434349
3099.05	-0.0035041
3108.69	-0.0015234
3118.33	-0.00243612
3127.97	0.00073458
3137.61	-0.00215719
3147.26	-0.00177809
3156.9	-0.00138181
3166.54	-0.00191902
3176.18	-0.0020745
3185.83	-0.00223373
3195.47	-0.00348222
3205.11	-0.00340183
3214.75	-0.00242682
3224.4	-0.00520951
3234.04	-0.0016394
3243.68	-0.0028416
3253.32	-0.00219862
3262.97	-0.00328958
3272.61	-0.00149897
3282.25	-0.0035578
3291.89	-0.0027814
3301.53	-0.00472521
3311.18	-0.00376283
3320.82	-0.0046801
3330.46	-0.00415032
3340.1	-0.00306942
3349.75	-0.00347717
3359.39	-0.00510553
3369.03	-0.00345298
3378.67	-0.0039111
3388.32	-0.00553027
3397.96	-0.00478848
3407.6	-0.00344779
3417.24	-0.00238649
3426.89	-0.0029443
3436.53	-0.00413194
3446.17	-0.00218095
3455.81	-0.00157877
3465.45	-0.00176095
3475.1	-0.0020837
3484.74	-0.00520422
3494.38	-0.00252012
3504.02	-0.00104062
3513.67	-0.000300455
3523.31	0.000488524
3532.95	-0.00575713
3542.59	6.3152e-05
3552.24	-0.00264962
3561.88	0.000596821
3571.52	0.000244626
3581.16	0.00210298
3590.8	0.000210962
3600.45	-0.000919989
3610.09	-0.00155998
3619.73	0.000306707
3629.37	0.000643861
3639.02	-0.000868145
3648.66	-0.00230439
3658.3	0.00377048
3667.94	-0.000263707
3677.59	-0.0010398
3687.23	-0.0011745
3696.87	0.00172954
3706.51	-0.000321735
3716.16	-0.00541214
3725.8	-0.00161788
3735.44	0.00168613
3745.08	0.00290368
3754.72	0.000192597
3764.37	0.0045178
3774.01	-0.00048249
3783.65	0.00182235
3793.29	0.00120729
3802.94	-5.90961e-05
3812.58	0.000248628
3822.22	0.00463257
3831.86	0.000293188
3841.51	-0.000925484
3851.15	0.00163898
3860.79	-0.00313657
3870.43	0.0039404
3880.07	0.00164615
3889.72	0.000451405
3899.36	-0.00134613
3909	0.000863996
3918.64	0.00147823
3928.29	-0.00217333
3937.93	0.00290838
3947.57	-0.00227439
3957.21	-0.00226397
3966.86	-0.00068886
3976.5	0.00367467
3986.14	0.000845499
3995.78	-0.000507137
