Measurement: Infrared, Infrared Data Processed
Mineral: Cuprite
Rruff sample: R050374
Ideal chemistry: Cu^1+^_2_O
Locality: unknown
Source: Eugene Schlepp
Description: Aggregate of deep red cubes
Measured chemistry: Cu_2.00_O
x	intensity
399.193	0.34065
408.835	0.366183
418.477	0.3798
428.12	0.401558
437.762	0.420322
447.404	0.43238
457.047	0.442818
466.689	0.447135
476.331	0.450513
485.974	0.460342
495.616	0.480248
505.258	0.486922
514.901	0.505526
524.543	0.517154
534.185	0.537656
543.828	0.551951
553.47	0.581037
563.112	0.603435
572.755	0.633991
582.397	0.656463
592.039	0.668244
601.682	0.649061
611.324	0.583028
620.966	0.488763
630.609	0.392716
640.251	0.290907
649.893	0.20199
659.536	0.137954
669.178	0.107771
678.82	0.110358
688.463	0.129217
698.105	0.142259
707.747	0.143979
717.39	0.153871
727.032	0.17335
736.674	0.197205
746.317	0.219107
755.959	0.240586
765.601	0.261698
775.244	0.282091
784.886	0.294048
794.528	0.308746
804.171	0.311771
813.813	0.315194
823.455	0.323638
833.098	0.330697
842.74	0.336301
852.382	0.342999
862.025	0.349898
871.667	0.359752
881.309	0.368139
890.952	0.377326
900.594	0.386386
910.236	0.397236
919.879	0.405451
929.521	0.415775
939.163	0.42488
948.806	0.4347
958.448	0.442938
968.09	0.446488
977.733	0.450985
987.375	0.45507
997.017	0.459174
1006.66	0.465333
1016.3	0.47284
1025.94	0.477905
1035.59	0.481496
1045.23	0.484939
1054.87	0.492009
1064.51	0.497575
1074.16	0.504461
1083.8	0.507815
1093.44	0.505154
1103.08	0.502972
1112.72	0.500581
1122.37	0.498236
1132.01	0.495254
1141.65	0.494437
1151.3	0.493859
1160.94	0.495096
1170.58	0.498397
1180.22	0.500763
1189.86	0.503656
1199.51	0.504361
1209.15	0.502988
1218.79	0.502629
1228.43	0.504075
1238.08	0.506844
1247.72	0.511685
1257.36	0.517419
1267	0.523079
1276.64	0.530197
1286.29	0.532399
1295.93	0.537305
1305.57	0.544412
1315.21	0.552316
1324.86	0.55981
1334.5	0.568146
1344.14	0.575489
1353.78	0.581666
1363.43	0.58792
1373.07	0.593321
1382.71	0.596127
1392.35	0.598731
1401.99	0.601114
1411.64	0.601422
1421.28	0.602714
1430.92	0.605312
1440.57	0.607437
1450.21	0.61104
1459.85	0.613071
1469.49	0.612653
1479.13	0.612406
1488.78	0.611258
1498.42	0.612181
1508.06	0.612415
1517.7	0.613974
1527.35	0.615815
1536.99	0.6198
1546.63	0.622127
1556.27	0.624505
1565.91	0.62631
1575.56	0.627819
1585.2	0.629359
1594.84	0.630715
1604.48	0.632046
1614.13	0.633423
1623.77	0.635391
1633.41	0.638859
1643.05	0.641319
1652.7	0.644683
1662.34	0.648102
1671.98	0.651118
1681.62	0.653153
1691.27	0.656764
1700.91	0.661728
1710.55	0.665041
1720.19	0.668988
1729.84	0.67284
1739.48	0.673617
1749.12	0.674521
1758.76	0.674284
1768.4	0.680023
1778.05	0.682589
1787.69	0.686521
1797.33	0.688578
1806.97	0.692856
1816.62	0.693165
1826.26	0.697812
1835.9	0.700384
1845.54	0.702426
1855.18	0.70501
1864.83	0.710356
1874.47	0.713355
1884.11	0.716737
1893.75	0.716991
1903.4	0.721246
1913.04	0.719403
1922.68	0.721722
1932.32	0.722283
1941.97	0.72283
1951.61	0.723548
1961.25	0.722849
1970.89	0.717037
1980.54	0.72397
1990.18	0.728513
1999.82	0.73388
2009.46	0.733758
2019.11	0.73175
2028.75	0.735633
2038.39	0.737813
2048.03	0.749811
2057.67	0.758581
2067.32	0.760637
2076.96	0.765957
2086.6	0.769956
2096.24	0.768658
2105.89	0.775192
2115.53	0.780258
2125.17	0.778987
2134.81	0.780216
2144.45	0.778999
2154.1	0.764228
2163.74	0.774464
2173.38	0.778595
2183.02	0.784008
2192.67	0.787139
2202.31	0.793606
2211.95	0.796065
2221.59	0.802738
2231.24	0.806554
2240.88	0.812863
2250.52	0.819077
2260.16	0.824346
2269.8	0.825467
2279.45	0.83202
2289.09	0.838036
2298.73	0.839942
2308.38	0.843639
2318.02	0.845647
2327.66	0.849813
2337.3	0.853836
2346.94	0.856106
2356.59	0.860761
2366.23	0.863423
2375.87	0.863637
2385.51	0.866588
2395.16	0.869579
2404.8	0.871513
2414.44	0.872601
2424.08	0.879144
2433.72	0.877836
2443.37	0.882355
2453.01	0.88456
2462.65	0.889445
2472.29	0.889101
2481.94	0.892758
2491.58	0.897715
2501.22	0.896478
2510.86	0.900561
2520.51	0.905357
2530.15	0.906436
2539.79	0.90649
2549.43	0.913242
2559.07	0.918697
2568.72	0.919179
2578.36	0.922277
2588	0.923979
2597.64	0.926466
2607.29	0.929486
2616.93	0.934162
2626.57	0.935341
2636.21	0.941803
2645.86	0.944938
2655.5	0.945954
2665.14	0.950483
2674.78	0.953476
2684.43	0.955004
2694.07	0.959785
2703.71	0.964865
2713.35	0.96587
2722.99	0.968217
2732.64	0.972505
2742.28	0.976898
2751.92	0.979416
2761.56	0.98259
2771.21	0.98636
2780.85	0.989256
2790.49	0.991242
2800.13	0.996938
2809.78	0.997108
2819.42	1.00347
2829.06	1.00889
2838.7	1.0171
2848.34	1.02578
2857.99	1.02722
2867.63	1.02066
2877.27	1.02522
2886.91	1.0273
2896.56	1.0362
2906.2	1.04138
2915.84	1.05156
2925.48	1.05741
2935.13	1.04206
2944.77	1.03943
2954.41	1.0457
2964.05	1.03795
2973.7	1.03775
2983.34	1.04025
2992.98	1.04344
3002.62	1.04673
3012.26	1.051
3021.91	1.05393
3031.55	1.0599
3041.19	1.06445
3050.83	1.06413
3060.48	1.07046
3070.12	1.07378
3079.76	1.07375
3089.4	1.07784
3099.05	1.08171
3108.69	1.08279
3118.33	1.0896
3127.97	1.08982
3137.61	1.09202
3147.26	1.09708
3156.9	1.09972
3166.54	1.10634
3176.18	1.10275
3185.83	1.10914
3195.47	1.11784
3205.11	1.11275
3214.75	1.11491
3224.4	1.11642
3234.04	1.12098
3243.68	1.12393
3253.32	1.12767
3262.97	1.13064
3272.61	1.13189
3282.25	1.13609
3291.89	1.13913
3301.53	1.13685
3311.18	1.14195
3320.82	1.1405
3330.46	1.14966
3340.1	1.15227
3349.75	1.15448
3359.39	1.15214
3369.03	1.15586
3378.67	1.15861
3388.32	1.16132
3397.96	1.1586
3407.6	1.16212
3417.24	1.16306
3426.89	1.16368
3436.53	1.1697
3446.17	1.17919
3455.81	1.17573
3465.45	1.17863
3475.1	1.17944
3484.74	1.17292
3494.38	1.17512
3504.02	1.18065
3513.67	1.18303
3523.31	1.18145
3532.95	1.18231
3542.59	1.18202
3552.24	1.19009
3561.88	1.18734
3571.52	1.19187
3581.16	1.19294
3590.8	1.18956
3600.45	1.19611
3610.09	1.20102
3619.73	1.19655
3629.37	1.20704
3639.02	1.20341
3648.66	1.21561
3658.3	1.20653
3667.94	1.21407
3677.59	1.21749
3687.23	1.2166
3696.87	1.22899
3706.51	1.22868
3716.16	1.22804
3725.8	1.23245
3735.44	1.23686
3745.08	1.24232
3754.72	1.24131
3764.37	1.2445
3774.01	1.25017
3783.65	1.24854
3793.29	1.25418
3802.94	1.2629
3812.58	1.26764
3822.22	1.26353
3831.86	1.26917
3841.51	1.27417
3851.15	1.2823
3860.79	1.28032
3870.43	1.28836
3880.07	1.2824
3889.72	1.29892
3899.36	1.29017
3909	1.29027
3918.64	1.30439
3928.29	1.3051
3937.93	1.30173
3947.57	1.31291
3957.21	1.3146
3966.86	1.31498
3976.5	1.3253
3986.14	1.32666
3995.78	1.32175
