Measurement: Infrared, Infrared Data Processed
Mineral: Cylindrite
Rruff sample: R050175
Ideal chemistry: FePb_3_Sn_4_Sb_2_S_14_
Locality: Poop√≥ Province, Oruro Department, Bolivia
Source: Marcus Origlieri
Description: Gray tubular aggregates
Measured chemistry: Pb_3.05_Sn_4.25_Fe_0.84_Sb_1.87_S_14.00_
x	intensity
374.123	0.0558505
383.765	0.0654576
393.407	0.0745854
403.05	0.0815767
412.692	0.0928968
422.334	0.103498
431.976	0.113457
441.619	0.121161
451.261	0.129765
460.904	0.137273
470.546	0.142859
480.188	0.147759
489.83	0.152354
499.473	0.156985
509.115	0.161571
518.758	0.165639
528.4	0.169367
538.042	0.173069
547.684	0.176493
557.327	0.180202
566.969	0.18367
576.611	0.187249
586.254	0.192593
595.896	0.198443
605.538	0.196264
615.181	0.196991
624.823	0.201479
634.466	0.199682
644.108	0.198155
653.75	0.199296
663.393	0.201445
673.035	0.203054
682.677	0.20528
692.319	0.207879
701.962	0.209289
711.604	0.210978
721.246	0.213198
730.889	0.214866
740.531	0.21683
750.173	0.218336
759.816	0.220475
769.458	0.222783
779.101	0.224809
788.743	0.226357
798.385	0.227944
808.028	0.228776
817.67	0.230521
827.312	0.233451
836.955	0.23573
846.597	0.239095
856.239	0.241931
865.881	0.245212
875.524	0.248894
885.166	0.251285
894.808	0.254332
904.451	0.256751
914.093	0.259752
923.736	0.26244
933.378	0.264923
943.02	0.268102
952.663	0.271387
962.305	0.274642
971.947	0.276006
981.59	0.278602
991.232	0.281881
1000.87	0.286058
1010.52	0.289986
1020.16	0.291789
1029.8	0.294536
1039.44	0.297088
1049.09	0.299025
1058.73	0.29972
1068.37	0.300056
1078.01	0.301074
1087.65	0.301125
1097.3	0.301128
1106.94	0.30095
1116.58	0.300722
1126.22	0.300813
1135.87	0.301478
1145.51	0.303294
1155.15	0.305038
1164.79	0.30623
1174.44	0.305634
1184.08	0.304483
1193.72	0.303558
1203.36	0.303387
1213.01	0.30368
1222.65	0.303966
1232.29	0.30476
1241.93	0.305897
1251.58	0.307286
1261.22	0.308309
1270.86	0.310521
1280.5	0.312569
1290.14	0.313926
1299.79	0.315985
1309.43	0.317701
1319.07	0.31943
1328.71	0.321273
1338.36	0.32329
1348	0.32507
1357.64	0.326915
1367.28	0.329213
1376.92	0.331272
1386.57	0.332747
1396.21	0.334432
1405.85	0.336313
1415.49	0.338195
1425.14	0.339913
1434.78	0.342142
1444.42	0.343735
1454.06	0.345532
1463.71	0.346459
1473.35	0.347338
1482.99	0.348632
1492.63	0.350688
1502.28	0.352664
1511.92	0.354323
1521.56	0.356304
1531.2	0.357676
1540.85	0.360007
1550.49	0.361277
1560.13	0.363393
1569.77	0.364505
1579.41	0.366258
1589.06	0.367899
1598.7	0.369552
1608.34	0.371014
1617.98	0.372715
1627.63	0.373679
1637.27	0.375032
1646.91	0.376141
1656.55	0.377206
1666.19	0.378149
1675.84	0.379474
1685.48	0.381277
1695.12	0.382815
1704.77	0.383937
1714.41	0.385427
1724.05	0.387133
1733.69	0.389167
1743.33	0.388962
1752.98	0.389621
1762.62	0.391015
1772.26	0.392777
1781.9	0.393535
1791.55	0.394835
1801.19	0.395891
1810.83	0.396906
1820.47	0.398417
1830.12	0.399488
1839.76	0.400874
1849.4	0.402301
1859.04	0.403339
1868.68	0.404817
1878.33	0.40592
1887.97	0.407384
1897.61	0.409203
1907.25	0.410461
1916.9	0.412372
1926.54	0.413357
1936.18	0.414422
1945.82	0.415447
1955.46	0.414927
1965.11	0.41742
1974.75	0.417738
1984.39	0.421475
1994.04	0.422242
2003.68	0.420968
2013.32	0.424345
2022.96	0.425129
2032.6	0.428046
2042.25	0.429662
2051.89	0.430379
2061.53	0.431539
2071.17	0.433597
2080.82	0.43455
2090.46	0.435973
2100.1	0.437607
2109.74	0.439418
2119.39	0.440351
2129.03	0.441939
2138.67	0.442229
2148.31	0.44446
2157.95	0.444541
2167.6	0.447543
2177.24	0.448424
2186.88	0.450213
2196.52	0.451062
2206.17	0.452733
2215.81	0.452768
2225.45	0.455413
2235.09	0.45804
2244.74	0.457203
2254.38	0.45884
2264.02	0.459892
2273.66	0.461208
2283.3	0.463084
2292.95	0.463738
2302.59	0.465143
2312.23	0.466157
2321.87	0.468645
2331.52	0.469603
2341.16	0.470857
2350.8	0.471698
2360.44	0.473186
2370.09	0.474756
2379.73	0.47517
2389.37	0.476459
2399.01	0.477192
2408.66	0.478527
2418.3	0.479466
2427.94	0.480857
2437.58	0.481572
2447.22	0.48284
2456.87	0.48422
2466.51	0.48569
2476.15	0.486109
2485.79	0.487157
2495.44	0.488654
2505.08	0.489452
2514.72	0.49063
2524.36	0.492346
2534.01	0.493639
2543.65	0.494943
2553.29	0.49607
2562.93	0.497329
2572.57	0.498857
2582.22	0.499983
2591.86	0.501819
2601.5	0.503006
2611.14	0.504269
2620.79	0.505815
2630.43	0.508054
2640.07	0.509336
2649.71	0.51085
2659.36	0.512467
2669	0.513925
2678.64	0.514626
2688.28	0.515933
2697.93	0.517095
2707.57	0.518315
2717.21	0.519652
2726.85	0.521089
2736.49	0.522386
2746.14	0.523356
2755.78	0.52449
2765.42	0.525471
2775.06	0.526882
2784.71	0.528016
2794.35	0.529085
2803.99	0.530567
2813.63	0.531923
2823.28	0.533301
2832.92	0.535316
2842.56	0.535981
2852.2	0.536618
2861.84	0.537424
2871.49	0.539165
2881.13	0.540674
2890.77	0.541758
2900.41	0.542657
2910.06	0.543946
2919.7	0.544352
2929.34	0.544129
2938.98	0.545421
2948.62	0.545912
2958.27	0.546774
2967.91	0.546997
2977.55	0.548317
2987.2	0.548778
2996.84	0.549854
3006.48	0.55121
3016.12	0.551769
3025.76	0.553825
3035.41	0.554704
3045.05	0.55554
3054.69	0.557138
3064.33	0.558822
3073.98	0.559817
3083.62	0.561293
3093.26	0.562114
3102.9	0.56252
3112.55	0.56438
3122.19	0.565995
3131.83	0.566999
3141.47	0.56821
3151.11	0.568921
3160.76	0.570083
3170.4	0.571817
3180.04	0.572139
3189.68	0.572976
3199.33	0.574037
3208.97	0.575407
3218.61	0.576071
3228.25	0.57719
3237.9	0.578541
3247.54	0.57796
3257.18	0.581115
3266.82	0.581816
3276.47	0.582441
3286.11	0.583333
3295.75	0.584035
3305.39	0.585577
3315.03	0.585855
3324.68	0.586607
3334.32	0.587903
3343.96	0.588304
3353.6	0.589272
3363.25	0.590431
3372.89	0.591316
3382.53	0.593191
3392.17	0.59318
3401.82	0.594227
3411.46	0.594394
3421.1	0.596301
3430.74	0.59651
3440.39	0.596512
3450.03	0.598014
3459.67	0.598517
3469.31	0.599137
3478.95	0.599059
3488.6	0.601129
3498.24	0.600308
3507.88	0.601072
3517.52	0.601993
3527.17	0.601878
3536.81	0.603229
3546.45	0.602712
3556.09	0.604727
3565.74	0.605948
3575.38	0.604528
3585.02	0.607572
3594.66	0.607873
3604.3	0.607753
3613.95	0.610618
3623.59	0.611052
3633.23	0.611323
3642.87	0.612932
3652.52	0.613871
3662.16	0.615379
3671.8	0.617282
3681.44	0.618345
3691.09	0.619403
3700.73	0.620988
3710.37	0.622207
3720.01	0.622702
3729.66	0.625112
3739.3	0.626554
3748.94	0.627224
3758.58	0.627276
3768.22	0.628107
3777.87	0.62978
3787.51	0.630673
3797.15	0.632449
3806.79	0.633076
3816.44	0.634194
3826.08	0.634945
3835.72	0.636642
3845.36	0.63766
3855.01	0.63975
3864.65	0.640338
3874.29	0.640564
3883.93	0.641881
3893.57	0.643388
3903.22	0.643544
3912.86	0.644012
3922.5	0.645524
3932.14	0.647745
3941.79	0.647542
3951.43	0.649373
3961.07	0.650219
3970.71	0.651429
3980.36	0.652279
3990	0.653036
3999.64	0.653295
