Measurement: Infrared, Infrared Data Processed
Mineral: Delhayelite
Rruff sample: R070096
Ideal chemistry: K_7_Na_3_Ca_5_Al_2_Si_14_O_38_F_4_Cl_2_
Locality: Yukspor Mountain, Khibiny Massif, Kola Peninsula, Russia
Source: Michael Scott
Description: Dark gray to colorless cleavage fragments associated with brown lamprophyllite, elongated blue aegerine, light yellow fenakite, grayish brown lomonosovite and very pale yellow to colorless Fenaksite (R080135).
Measured chemistry: K_7.25_Na_3.44_(Ca_4.32_Na_0.66_Mn_0.02_)_Σ=5_(Al_1.97_Fe^3+^_0.03_)_Σ=2_(Si_13.97_Al_0.03_)_Σ=14_O_38_F_4_(Cl_1.70_F_0.30_)_Σ=2_
x	intensity
374.123	0.0108441
383.765	0.0149275
393.407	0.0109378
403.05	0.00882724
412.692	0.0111569
422.334	0.0111179
431.976	0.0139837
441.619	0.0178784
451.261	0.018626
460.904	0.0166032
470.546	0.0146967
480.188	0.0101326
489.83	0.00639083
499.473	0.00400872
509.115	0.00264939
518.758	0.00270922
528.4	0.00262831
538.042	0.00253029
547.684	0.00248431
557.327	0.003059
566.969	0.0039683
576.611	0.00463698
586.254	0.00555488
595.896	0.00547205
605.538	0.00491339
615.181	0.00465606
624.823	0.00442465
634.466	0.00552945
644.108	0.00532268
653.75	0.00542272
663.393	0.00721933
673.035	0.00642381
682.677	0.00433478
692.319	0.00367407
701.962	0.00452904
711.604	0.00406633
721.246	0.00352915
730.889	0.0033703
740.531	0.00290261
750.173	0.00276741
759.816	0.00275964
769.458	0.00282045
779.101	0.0025804
788.743	0.00257834
798.385	0.00239579
808.028	0.0023814
817.67	0.0025578
827.312	0.00267196
836.955	0.00287441
846.597	0.00308869
856.239	0.00340779
865.881	0.00370537
875.524	0.00430116
885.166	0.00463639
894.808	0.00524239
904.451	0.00592794
914.093	0.00703126
923.736	0.00845411
933.378	0.0102354
943.02	0.0136303
952.663	0.0175658
962.305	0.021456
971.947	0.024836
981.59	0.0277093
991.232	0.0286608
1000.87	0.0262817
1010.52	0.0223188
1020.16	0.0196615
1029.8	0.0172404
1039.44	0.0153748
1049.09	0.0141923
1058.73	0.0136625
1068.37	0.0138413
1078.01	0.014187
1087.65	0.0136745
1097.3	0.0125483
1106.94	0.0114388
1116.58	0.00995675
1126.22	0.00831507
1135.87	0.00700384
1145.51	0.0058613
1155.15	0.004344
1164.79	0.00302723
1174.44	0.00213753
1184.08	0.00158059
1193.72	0.00115742
1203.36	0.000886155
1213.01	0.000780459
1222.65	0.000572733
1232.29	0.000493831
1241.93	0.000497777
1251.58	0.000388088
1261.22	0.000387147
1270.86	0.000515103
1280.5	0.000349888
1290.14	0.000485439
1299.79	0.000465748
1309.43	0.000395824
1319.07	0.000339872
1328.71	0.000480828
1338.36	0.000482853
1348	0.000468854
1357.64	0.000490036
1367.28	0.000466493
1376.92	0.000422071
1386.57	0.000484246
1396.21	0.000482381
1405.85	0.000876782
1415.49	0.000833809
1425.14	0.000799157
1434.78	0.000705323
1444.42	0.000888519
1454.06	0.000753487
1463.71	0.000682886
1473.35	0.00042007
1482.99	0.000904223
1492.63	0.000970577
1502.28	0.000669289
1511.92	0.000637831
1521.56	8.02158e-05
1531.2	0.000448851
1540.85	-0.000400096
1550.49	0.000525709
1560.13	-0.000468232
1569.77	0.000375949
1579.41	0.000825883
1589.06	0.000748589
1598.7	0.000588284
1608.34	0.000621914
1617.98	0.000115111
1627.63	0.000611019
1637.27	0.000338379
1646.91	1.86082e-05
1656.55	0.000404641
1666.19	0.000507372
1675.84	-0.000115654
1685.48	-0.000374747
1695.12	-0.00037807
1704.77	0.000144392
1714.41	-8.48622e-05
1724.05	0.000166137
1733.69	-0.00100695
1743.33	0.000141881
1752.98	0.000183391
1762.62	0.000116113
1772.26	1.09811e-05
1781.9	0.000420018
1791.55	0.000186119
1801.19	0.000532055
1810.83	0.000538806
1820.47	0.000717103
1830.12	0.000505042
1839.76	0.00083319
1849.4	0.00084731
1859.04	0.00086998
1868.68	0.00046098
1878.33	0.00113031
1887.97	0.000802048
1897.61	0.00106687
1907.25	0.000664509
1916.9	0.000858842
1926.54	0.000440443
1936.18	0.000800824
1945.82	0.0011484
1955.46	0.0015075
1965.11	0.00128465
1974.75	0.0022744
1984.39	0.00146881
1994.04	0.00163891
2003.68	0.00160017
2013.32	0.00222821
2022.96	0.0024315
2032.6	0.00253584
2042.25	0.00327086
2051.89	0.00237072
2061.53	0.00221942
2071.17	0.00283781
2080.82	0.00223281
2090.46	0.00127195
2100.1	0.00167425
2109.74	0.00110498
2119.39	0.00150408
2129.03	0.0014932
2138.67	0.00222299
2148.31	0.00322558
2157.95	0.00426551
2167.6	0.00343884
2177.24	0.00303145
2186.88	0.00255089
2196.52	0.00229724
2206.17	0.00145255
2215.81	0.00247832
2225.45	0.00218243
2235.09	0.00251029
2244.74	0.0019448
2254.38	0.00124156
2264.02	0.00200139
2273.66	0.00188354
2283.3	0.00182064
2292.95	0.00143322
2302.59	0.000725288
2312.23	0.000839791
2321.87	0.000398499
2331.52	-0.000220312
2341.16	0.000218582
2350.8	0.000206458
2360.44	-0.000133868
2370.09	0.00017325
2379.73	0.000534792
2389.37	0.00126306
2399.01	0.00126798
2408.66	0.00121067
2418.3	0.00112044
2427.94	0.00158161
2437.58	0.00076227
2447.22	0.00110585
2456.87	0.00115934
2466.51	0.00117994
2476.15	0.000839447
2485.79	0.00106651
2495.44	0.00157798
2505.08	0.000765446
2514.72	0.00171365
2524.36	0.000908615
2534.01	0.00116282
2543.65	0.00112501
2553.29	0.00104705
2562.93	0.00139811
2572.57	0.000749922
2582.22	0.00127163
2591.86	0.00107166
2601.5	0.00122657
2611.14	0.00114654
2620.79	0.000497624
2630.43	0.000908865
2640.07	0.000536279
2649.71	0.000576846
2659.36	0.00036257
2669	0.000347865
2678.64	0.000269405
2688.28	0.000293924
2697.93	0.000188917
2707.57	0.000319884
2717.21	0.000250675
2726.85	0.000167133
2736.49	0.000282474
2746.14	0.000443735
2755.78	0.000185652
2765.42	0.000208577
2775.06	0.00026001
2784.71	0.000299564
2794.35	0.000451128
2803.99	0.000720149
2813.63	0.000141827
2823.28	0.000547654
2832.92	0.000729129
2842.56	0.000484666
2852.2	0.000579316
2861.84	0.000775172
2871.49	0.000237472
2881.13	0.000745477
2890.77	0.000785106
2900.41	0.000174092
2910.06	0.00052859
2919.7	0.000314239
2929.34	0.000426111
2938.98	0.000264734
2948.62	0.000463906
2958.27	0.000693728
2967.91	0.000573623
2977.55	0.000616613
2987.2	0.000560391
2996.84	0.000391739
3006.48	0.000672421
3016.12	0.00128378
3025.76	0.000156294
3035.41	0.000420969
3045.05	0.000920133
3054.69	0.00110509
3064.33	0.000461645
3073.98	0.000685959
3083.62	0.00108933
3093.26	0.000589603
3102.9	0.00109062
3112.55	0.000330885
3122.19	0.000794517
3131.83	0.000903329
3141.47	0.000590449
3151.11	0.000471795
3160.76	0.000638089
3170.4	0.000396409
3180.04	0.000673313
3189.68	0.000154727
3199.33	5.89024e-05
3208.97	0.000552262
3218.61	0.000397572
3228.25	0.000358871
3237.9	0.000696611
3247.54	0.0010602
3257.18	0.000675839
3266.82	0.00100415
3276.47	0.000863334
3286.11	0.000919543
3295.75	0.00116439
3305.39	0.000880484
3315.03	0.000973718
3324.68	0.00106548
3334.32	0.00141197
3343.96	0.00140952
3353.6	0.00074977
3363.25	0.000796962
3372.89	0.00109245
3382.53	0.000721063
3392.17	0.00115115
3401.82	0.00020833
3411.46	0.00125305
3421.1	0.00126127
3430.74	0.000556938
3440.39	0.000709302
3450.03	0.00131051
3459.67	0.000419567
3469.31	0.00129493
3478.95	0.0013061
3488.6	0.001289
3498.24	0.00175554
3507.88	0.00169747
3517.52	0.000867288
3527.17	0.0013779
3536.81	0.00102823
3546.45	0.00155726
3556.09	0.000843287
3565.74	0.00207157
3575.38	0.00103556
3585.02	0.000908449
3594.66	0.00282694
3604.3	0.000690245
3613.95	0.00253185
3623.59	0.00101572
3633.23	0.00143834
3642.87	0.00184024
3652.52	0.00109825
3662.16	0.00132825
3671.8	0.00239063
3681.44	0.000194361
3691.09	0.00203783
3700.73	0.000950521
3710.37	0.00148727
3720.01	0.00113209
3729.66	0.00231769
3739.3	0.00103456
3748.94	0.00165479
3758.58	0.000866241
3768.22	0.00182464
3777.87	0.00113483
3787.51	0.00131439
3797.15	3.80879e-05
3806.79	0.0011554
3816.44	0.000114911
3826.08	0.00140671
3835.72	1.80257e-05
3845.36	0.000990742
3855.01	0.000516042
3864.65	0.000635472
3874.29	0.000998241
3883.93	-0.000328055
3893.57	0.0009486
3903.22	0.0010379
3912.86	0.000819203
3922.5	6.96099e-05
3932.14	0.00090852
3941.79	7.98213e-05
3951.43	0.000963032
3961.07	0.000223991
3970.71	0.000581358
3980.36	0.00161511
3990	0.000856035
3999.64	0.000479833
