Measurement: Infrared, Infrared Data Processed
Mineral: Descloizite
Rruff sample: R050037
Ideal chemistry: Pb^2+^Zn^2+^V^5+^O_4_(OH)
Locality: Berg Aukas mine, Namibia
Source: Eugene Schlepp
Description: Group of brown thin tabular single crystals
Measured chemistry: Pb_1.00_(Zn_0.98_Cu_0.02_)_Σ=1_((V_0.98_As_0.02_)_Σ=1_O_4_)(OH) ; OH estimated by difference and stoichiometry
x	intensity
399.193	0
408.835	0.133112
418.477	0.121875
428.12	0.136024
437.762	0.165204
447.404	0.198072
457.047	0.191651
466.689	0.130753
476.331	0.0932545
485.974	0.0949476
495.616	0.113175
505.258	0.134148
514.901	0.143484
524.543	0.15631
534.185	0.174327
543.828	0.187367
553.47	0.20082
563.112	0.212574
572.755	0.224964
582.397	0.237504
592.039	0.24762
601.682	0.259855
611.324	0.272758
620.966	0.284377
630.609	0.295974
640.251	0.307209
649.893	0.318726
659.536	0.329369
669.178	0.339946
678.82	0.349215
688.463	0.351518
698.105	0.348577
707.747	0.341769
717.39	0.330016
727.032	0.311208
736.674	0.28608
746.317	0.254045
755.959	0.209467
765.601	0.168651
775.244	0.138655
784.886	0.101939
794.528	0.0776568
804.171	0.068851
813.813	0.0756383
823.455	0.0966062
833.098	0.13649
842.74	0.200862
852.382	0.248671
862.025	0.200696
871.667	0.132662
881.309	0.0738229
890.952	0.0611945
900.594	0.0718075
910.236	0.103837
919.879	0.108142
929.521	0.0619655
939.163	0.0317198
948.806	0.0251194
958.448	0.0246783
968.09	0.0242289
977.733	0.0215167
987.375	0.0184767
997.017	0.0181892
1006.66	0.0188817
1016.3	0.0207321
1025.94	0.0220687
1035.59	0.0220207
1045.23	0.0227424
1054.87	0.0233776
1064.51	0.0241049
1074.16	0.0249794
1083.8	0.026419
1093.44	0.0275572
1103.08	0.0287003
1112.72	0.0301127
1122.37	0.0317481
1132.01	0.0332529
1141.65	0.0349363
1151.3	0.0364414
1160.94	0.038009
1170.58	0.0396601
1180.22	0.041816
1189.86	0.0436535
1199.51	0.0455879
1209.15	0.0476208
1218.79	0.0498414
1228.43	0.0517523
1238.08	0.0540796
1247.72	0.0561889
1257.36	0.0584075
1267	0.0603438
1276.64	0.0640122
1286.29	0.0650466
1295.93	0.0673567
1305.57	0.0698301
1315.21	0.0726608
1324.86	0.0750114
1334.5	0.0780412
1344.14	0.0811015
1353.78	0.0845247
1363.43	0.0880339
1373.07	0.092364
1382.71	0.0969244
1392.35	0.102167
1401.99	0.107063
1411.64	0.111303
1421.28	0.116166
1430.92	0.120812
1440.57	0.123244
1450.21	0.124431
1459.85	0.123054
1469.49	0.120963
1479.13	0.117352
1488.78	0.113783
1498.42	0.110323
1508.06	0.106129
1517.7	0.104121
1527.35	0.104268
1536.99	0.104675
1546.63	0.104925
1556.27	0.105193
1565.91	0.105723
1575.56	0.105567
1585.2	0.107439
1594.84	0.109058
1604.48	0.110177
1614.13	0.111156
1623.77	0.111588
1633.41	0.113455
1643.05	0.115029
1652.7	0.114935
1662.34	0.117912
1671.98	0.119066
1681.62	0.120313
1691.27	0.122546
1700.91	0.122675
1710.55	0.124432
1720.19	0.123495
1729.84	0.122912
1739.48	0.121276
1749.12	0.122246
1758.76	0.123801
1768.4	0.122886
1778.05	0.122311
1787.69	0.122874
1797.33	0.122927
1806.97	0.122362
1816.62	0.12122
1826.26	0.120079
1835.9	0.120093
1845.54	0.120518
1855.18	0.122828
1864.83	0.123212
1874.47	0.124302
1884.11	0.125295
1893.75	0.126513
1903.4	0.127185
1913.04	0.128738
1922.68	0.128481
1932.32	0.129451
1941.97	0.128988
1951.61	0.130988
1961.25	0.133444
1970.89	0.132197
1980.54	0.137391
1990.18	0.134941
1999.82	0.136937
2009.46	0.139476
2019.11	0.14004
2028.75	0.139955
2038.39	0.143468
2048.03	0.144047
2057.67	0.142862
2067.32	0.14246
2076.96	0.146321
2086.6	0.144929
2096.24	0.147376
2105.89	0.147124
2115.53	0.147636
2125.17	0.147593
2134.81	0.14857
2144.45	0.151342
2154.1	0.145746
2163.74	0.156105
2173.38	0.150339
2183.02	0.155029
2192.67	0.158412
2202.31	0.156439
2211.95	0.156694
2221.59	0.161783
2231.24	0.15982
2240.88	0.161076
2250.52	0.160136
2260.16	0.163724
2269.8	0.163969
2279.45	0.165986
2289.09	0.165586
2298.73	0.165529
2308.38	0.167115
2318.02	0.168336
2327.66	0.166884
2337.3	0.168313
2346.94	0.169561
2356.59	0.169758
2366.23	0.169709
2375.87	0.172297
2385.51	0.172271
2395.16	0.172308
2404.8	0.174628
2414.44	0.175008
2424.08	0.175819
2433.72	0.176982
2443.37	0.177502
2453.01	0.180089
2462.65	0.181196
2472.29	0.179541
2481.94	0.181601
2491.58	0.181333
2501.22	0.184045
2510.86	0.185245
2520.51	0.185382
2530.15	0.185709
2539.79	0.186494
2549.43	0.188866
2559.07	0.188552
2568.72	0.190389
2578.36	0.189892
2588	0.191216
2597.64	0.191602
2607.29	0.194174
2616.93	0.195195
2626.57	0.194888
2636.21	0.19687
2645.86	0.198223
2655.5	0.197969
2665.14	0.198769
2674.78	0.199146
2684.43	0.20058
2694.07	0.201192
2703.71	0.202514
2713.35	0.201773
2722.99	0.20397
2732.64	0.204872
2742.28	0.205251
2751.92	0.207157
2761.56	0.208684
2771.21	0.210309
2780.85	0.21075
2790.49	0.211335
2800.13	0.213955
2809.78	0.214749
2819.42	0.216051
2829.06	0.21769
2838.7	0.21926
2848.34	0.219701
2857.99	0.220443
2867.63	0.222946
2877.27	0.224932
2886.91	0.226228
2896.56	0.228842
2906.2	0.230607
2915.84	0.230908
2925.48	0.231875
2935.13	0.231729
2944.77	0.235199
2954.41	0.236077
2964.05	0.237843
2973.7	0.240414
2983.34	0.24446
2992.98	0.244901
3002.62	0.248473
3012.26	0.24945
3021.91	0.251984
3031.55	0.257018
3041.19	0.258203
3050.83	0.261154
3060.48	0.265494
3070.12	0.268664
3079.76	0.269803
3089.4	0.271116
3099.05	0.274362
3108.69	0.278609
3118.33	0.283365
3127.97	0.286425
3137.61	0.29248
3147.26	0.295307
3156.9	0.298151
3166.54	0.297937
3176.18	0.301856
3185.83	0.306551
3195.47	0.315323
3205.11	0.316469
3214.75	0.305427
3224.4	0.282903
3234.04	0.271512
3243.68	0.260435
3253.32	0.258509
3262.97	0.253716
3272.61	0.245995
3282.25	0.23414
3291.89	0.223814
3301.53	0.220113
3311.18	0.215292
3320.82	0.211553
3330.46	0.208177
3340.1	0.204586
3349.75	0.201975
3359.39	0.199245
3369.03	0.198148
3378.67	0.199117
3388.32	0.198489
3397.96	0.196891
3407.6	0.196833
3417.24	0.198286
3426.89	0.198316
3436.53	0.200822
3446.17	0.20009
3455.81	0.201751
3465.45	0.201608
3475.1	0.203758
3484.74	0.20536
3494.38	0.205866
3504.02	0.207336
3513.67	0.207176
3523.31	0.209144
3532.95	0.208747
3542.59	0.211661
3552.24	0.214044
3561.88	0.212826
3571.52	0.215895
3581.16	0.212269
3590.8	0.218297
3600.45	0.217913
3610.09	0.218709
3619.73	0.216441
3629.37	0.222078
3639.02	0.218589
3648.66	0.224549
3658.3	0.224251
3667.94	0.225684
3677.59	0.227581
3687.23	0.227552
3696.87	0.227641
3706.51	0.227547
3716.16	0.23033
3725.8	0.230254
3735.44	0.22845
3745.08	0.234428
3754.72	0.235301
3764.37	0.232074
3774.01	0.233674
3783.65	0.23763
3793.29	0.235764
3802.94	0.23918
3812.58	0.238192
3822.22	0.241559
3831.86	0.240071
3841.51	0.240292
3851.15	0.239297
3860.79	0.23958
3870.43	0.240304
3880.07	0.241761
3889.72	0.245829
3899.36	0.241008
3909	0.242838
3918.64	0.244357
3928.29	0.245662
3937.93	0.246106
3947.57	0.247296
3957.21	0.249265
3966.86	0.250476
3976.5	0.249174
3986.14	0.250374
3995.78	0.250314
