Measurement: Infrared, Infrared Data Processed
Mineral: Descloizite
Rruff sample: R050509
Ideal chemistry: Pb^2+^Zn^2+^V^5+^O_4_(OH)
Locality: Grootfontein district, Namibia
Source: University of Arizona Mineral Museum
Description: Group of brown tabular crystals
Measured chemistry: Pb_1.00_(Zn_0.85_Cu_0.15_)_Σ=1_((V_0.97_As_0.03_)_Σ=1_O_4_)(OH) ; (OH) estimated by difference and stoichiometry
x	intensity
399.193	0.153879
408.835	0.143448
418.477	0.131
428.12	0.151956
437.762	0.183179
447.404	0.223563
457.047	0.21941
466.689	0.166686
476.331	0.118873
485.974	0.116711
495.616	0.143125
505.258	0.178402
514.901	0.182966
524.543	0.173679
534.185	0.195984
543.828	0.217399
553.47	0.239391
563.112	0.256265
572.755	0.273054
582.397	0.290755
592.039	0.308754
601.682	0.323759
611.324	0.336417
620.966	0.35181
630.609	0.366475
640.251	0.385464
649.893	0.398117
659.536	0.413959
669.178	0.426008
678.82	0.434174
688.463	0.433197
698.105	0.423405
707.747	0.40973
717.39	0.388218
727.032	0.360133
736.674	0.327959
746.317	0.287398
755.959	0.238054
765.601	0.195922
775.244	0.161789
784.886	0.124255
794.528	0.100921
804.171	0.0932303
813.813	0.105423
823.455	0.122773
833.098	0.157113
842.74	0.220223
852.382	0.254305
862.025	0.196957
871.667	0.123632
881.309	0.0652675
890.952	0.0592222
900.594	0.0667225
910.236	0.0878743
919.879	0.0974697
929.521	0.0669905
939.163	0.0376433
948.806	0.0282819
958.448	0.0282263
968.09	0.0344459
977.733	0.0321819
987.375	0.0235006
997.017	0.0202705
1006.66	0.0194652
1016.3	0.0197718
1025.94	0.0206014
1035.59	0.0196316
1045.23	0.0197687
1054.87	0.0203295
1064.51	0.0215694
1074.16	0.0226085
1083.8	0.0242369
1093.44	0.0249057
1103.08	0.0264894
1112.72	0.0273442
1122.37	0.0285368
1132.01	0.0295609
1141.65	0.030601
1151.3	0.0320641
1160.94	0.0327953
1170.58	0.033196
1180.22	0.0357829
1189.86	0.0379661
1199.51	0.0394175
1209.15	0.0403876
1218.79	0.042041
1228.43	0.0437251
1238.08	0.044529
1247.72	0.0460299
1257.36	0.0478475
1267	0.0491629
1276.64	0.0515892
1286.29	0.0524082
1295.93	0.0541886
1305.57	0.0557458
1315.21	0.0572472
1324.86	0.0589519
1334.5	0.0607237
1344.14	0.0628437
1353.78	0.0647612
1363.43	0.0672143
1373.07	0.0698388
1382.71	0.0728496
1392.35	0.0758434
1401.99	0.0786063
1411.64	0.0811482
1421.28	0.0831144
1430.92	0.0849502
1440.57	0.0866762
1450.21	0.0877294
1459.85	0.0883859
1469.49	0.0886782
1479.13	0.0896811
1488.78	0.0900104
1498.42	0.089868
1508.06	0.0903215
1517.7	0.090919
1527.35	0.0919451
1536.99	0.0935821
1546.63	0.0950321
1556.27	0.0964462
1565.91	0.097325
1575.56	0.0987031
1585.2	0.100509
1594.84	0.102151
1604.48	0.103163
1614.13	0.104434
1623.77	0.105716
1633.41	0.107286
1643.05	0.108433
1652.7	0.110428
1662.34	0.111659
1671.98	0.113514
1681.62	0.115602
1691.27	0.117646
1700.91	0.119947
1710.55	0.119883
1720.19	0.119858
1729.84	0.120348
1739.48	0.117975
1749.12	0.118965
1758.76	0.121134
1768.4	0.123026
1778.05	0.121826
1787.69	0.120846
1797.33	0.121388
1806.97	0.121363
1816.62	0.121463
1826.26	0.12072
1835.9	0.121149
1845.54	0.121747
1855.18	0.124031
1864.83	0.124001
1874.47	0.124468
1884.11	0.127569
1893.75	0.128029
1903.4	0.130125
1913.04	0.129786
1922.68	0.129121
1932.32	0.129286
1941.97	0.132059
1951.61	0.13298
1961.25	0.132721
1970.89	0.133658
1980.54	0.139425
1990.18	0.136847
1999.82	0.13782
2009.46	0.141145
2019.11	0.141098
2028.75	0.141421
2038.39	0.139414
2048.03	0.145952
2057.67	0.14576
2067.32	0.144027
2076.96	0.145082
2086.6	0.148748
2096.24	0.147997
2105.89	0.148579
2115.53	0.149933
2125.17	0.150392
2134.81	0.148585
2144.45	0.153323
2154.1	0.151779
2163.74	0.157159
2173.38	0.15668
2183.02	0.159104
2192.67	0.155879
2202.31	0.158464
2211.95	0.161422
2221.59	0.160561
2231.24	0.161431
2240.88	0.161519
2250.52	0.161514
2260.16	0.163608
2269.8	0.162774
2279.45	0.165525
2289.09	0.166771
2298.73	0.168139
2308.38	0.168222
2318.02	0.16907
2327.66	0.169283
2337.3	0.171468
2346.94	0.171215
2356.59	0.17142
2366.23	0.172819
2375.87	0.173104
2385.51	0.174407
2395.16	0.174994
2404.8	0.17827
2414.44	0.177509
2424.08	0.177668
2433.72	0.180188
2443.37	0.182075
2453.01	0.181466
2462.65	0.184151
2472.29	0.183882
2481.94	0.185638
2491.58	0.185402
2501.22	0.186561
2510.86	0.188568
2520.51	0.188886
2530.15	0.189749
2539.79	0.190203
2549.43	0.19239
2559.07	0.191613
2568.72	0.192717
2578.36	0.194137
2588	0.194564
2597.64	0.195699
2607.29	0.19797
2616.93	0.195937
2626.57	0.197926
2636.21	0.200398
2645.86	0.200693
2655.5	0.201234
2665.14	0.202173
2674.78	0.203351
2684.43	0.202694
2694.07	0.20564
2703.71	0.205518
2713.35	0.206787
2722.99	0.207934
2732.64	0.208279
2742.28	0.209248
2751.92	0.212174
2761.56	0.211855
2771.21	0.214677
2780.85	0.214638
2790.49	0.215919
2800.13	0.217448
2809.78	0.219066
2819.42	0.219889
2829.06	0.220715
2838.7	0.22405
2848.34	0.222761
2857.99	0.226981
2867.63	0.22775
2877.27	0.228335
2886.91	0.229452
2896.56	0.232508
2906.2	0.233881
2915.84	0.235894
2925.48	0.237224
2935.13	0.239351
2944.77	0.240184
2954.41	0.241348
2964.05	0.244196
2973.7	0.247523
2983.34	0.24922
2992.98	0.252439
3002.62	0.253013
3012.26	0.255081
3021.91	0.258926
3031.55	0.260268
3041.19	0.262267
3050.83	0.26571
3060.48	0.270488
3070.12	0.269777
3079.76	0.274192
3089.4	0.277078
3099.05	0.27983
3108.69	0.281773
3118.33	0.284883
3127.97	0.287125
3137.61	0.29116
3147.26	0.293506
3156.9	0.292677
3166.54	0.297709
3176.18	0.297398
3185.83	0.298702
3195.47	0.297806
3205.11	0.296017
3214.75	0.287282
3224.4	0.274278
3234.04	0.264703
3243.68	0.25722
3253.32	0.2486
3262.97	0.246444
3272.61	0.235839
3282.25	0.230705
3291.89	0.222676
3301.53	0.217428
3311.18	0.21429
3320.82	0.210145
3330.46	0.208258
3340.1	0.203591
3349.75	0.199476
3359.39	0.202048
3369.03	0.197134
3378.67	0.197918
3388.32	0.197769
3397.96	0.199255
3407.6	0.202896
3417.24	0.198824
3426.89	0.201035
3436.53	0.201633
3446.17	0.201859
3455.81	0.203658
3465.45	0.202738
3475.1	0.205109
3484.74	0.206737
3494.38	0.209877
3504.02	0.212675
3513.67	0.21283
3523.31	0.211472
3532.95	0.210913
3542.59	0.214818
3552.24	0.213771
3561.88	0.216577
3571.52	0.218576
3581.16	0.220045
3590.8	0.221151
3600.45	0.220533
3610.09	0.218932
3619.73	0.219685
3629.37	0.222641
3639.02	0.223235
3648.66	0.228358
3658.3	0.230217
3667.94	0.229154
3677.59	0.229544
3687.23	0.230724
3696.87	0.228844
3706.51	0.230864
3716.16	0.23087
3725.8	0.234871
3735.44	0.237201
3745.08	0.233204
3754.72	0.240616
3764.37	0.23502
3774.01	0.234002
3783.65	0.23627
3793.29	0.238834
3802.94	0.240812
3812.58	0.238725
3822.22	0.242102
3831.86	0.241966
3841.51	0.241088
3851.15	0.243236
3860.79	0.243072
3870.43	0.23958
3880.07	0.243232
3889.72	0.246327
3899.36	0.246783
3909	0.243775
3918.64	0.243189
3928.29	0.24609
3937.93	0.24546
3947.57	0.253188
3957.21	0.251897
3966.86	0.249395
3976.5	0.253063
3986.14	0.24666
3995.78	0.25608
