Measurement: Infrared, Infrared Data Processed
Mineral: Diaboleite
Rruff sample: R050270
Ideal chemistry: Cu^2+^Pb^2+^_2_Cl_2_(OH)_4_
Locality: Tiger, Pinal County, Arizona, USA
Source: Marcus Origlieri
Description: Blue irregular crystalline
Measured chemistry: (Cu_0.97_Pb_0.03_)_Î£=1_Pb_2.00_Cl_2.00_(OH)_4_
x	intensity
399.193	0.0615727
408.835	0.0457131
418.477	0.0632893
428.12	0.103899
437.762	0.190563
447.404	0.113385
457.047	0.068612
466.689	0.0698
476.331	0.0615123
485.974	0.0493947
495.616	0.0436637
505.258	0.0391831
514.901	0.0367292
524.543	0.0345854
534.185	0.0312104
543.828	0.0285851
553.47	0.0292469
563.112	0.0312203
572.755	0.0358227
582.397	0.0418037
592.039	0.0495268
601.682	0.0600686
611.324	0.074764
620.966	0.0959272
630.609	0.123949
640.251	0.160115
649.893	0.202592
659.536	0.240694
669.178	0.258124
678.82	0.239068
688.463	0.188144
698.105	0.132605
707.747	0.0937341
717.39	0.0759805
727.032	0.0660775
736.674	0.0558553
746.317	0.0495053
755.959	0.0482562
765.601	0.0503853
775.244	0.0575126
784.886	0.058972
794.528	0.0578267
804.171	0.0493544
813.813	0.0415673
823.455	0.044954
833.098	0.0566965
842.74	0.0750252
852.382	0.089649
862.025	0.0815188
871.667	0.0611671
881.309	0.0456496
890.952	0.0366201
900.594	0.0320918
910.236	0.0304702
919.879	0.0297802
929.521	0.0301928
939.163	0.031069
948.806	0.0324852
958.448	0.0342603
968.09	0.0373237
977.733	0.0416018
987.375	0.0458481
997.017	0.0480312
1006.66	0.0498956
1016.3	0.0532239
1025.94	0.0566572
1035.59	0.0601431
1045.23	0.0647545
1054.87	0.0656448
1064.51	0.0645188
1074.16	0.0671279
1083.8	0.0694989
1093.44	0.0674694
1103.08	0.0623089
1112.72	0.0569673
1122.37	0.0513567
1132.01	0.04825
1141.65	0.0461516
1151.3	0.0441062
1160.94	0.0447534
1170.58	0.0440055
1180.22	0.0424278
1189.86	0.0406715
1199.51	0.0386214
1209.15	0.0371866
1218.79	0.0361216
1228.43	0.0359194
1238.08	0.0367083
1247.72	0.0373475
1257.36	0.0377516
1267	0.0384622
1276.64	0.0393503
1286.29	0.0403024
1295.93	0.0412067
1305.57	0.0425445
1315.21	0.043355
1324.86	0.0457466
1334.5	0.0471933
1344.14	0.0482732
1353.78	0.0483397
1363.43	0.0490283
1373.07	0.0493296
1382.71	0.0492804
1392.35	0.0495186
1401.99	0.0507771
1411.64	0.0510777
1421.28	0.051325
1430.92	0.0499789
1440.57	0.0488062
1450.21	0.0478363
1459.85	0.04691
1469.49	0.046198
1479.13	0.0452192
1488.78	0.0464877
1498.42	0.0485897
1508.06	0.052464
1517.7	0.0552785
1527.35	0.0590005
1536.99	0.0613116
1546.63	0.0614591
1556.27	0.0602055
1565.91	0.0574892
1575.56	0.054428
1585.2	0.0519506
1594.84	0.0497839
1604.48	0.0483574
1614.13	0.0472837
1623.77	0.0465428
1633.41	0.0459863
1643.05	0.0453748
1652.7	0.0448274
1662.34	0.0435501
1671.98	0.0426666
1681.62	0.0420243
1691.27	0.040692
1700.91	0.0399991
1710.55	0.0382501
1720.19	0.0380128
1729.84	0.0371429
1739.48	0.0352937
1749.12	0.0353101
1758.76	0.035916
1768.4	0.0362733
1778.05	0.0360436
1787.69	0.0361923
1797.33	0.0363397
1806.97	0.0373727
1816.62	0.0367217
1826.26	0.0373334
1835.9	0.0372896
1845.54	0.0373104
1855.18	0.0381193
1864.83	0.0380417
1874.47	0.0385682
1884.11	0.0384254
1893.75	0.0394403
1903.4	0.0374114
1913.04	0.0392029
1922.68	0.0388367
1932.32	0.0396908
1941.97	0.0384025
1951.61	0.0382573
1961.25	0.0410283
1970.89	0.0390919
1980.54	0.0434369
1990.18	0.0445336
1999.82	0.0399346
2009.46	0.0394091
2019.11	0.0425501
2028.75	0.0413805
2038.39	0.044168
2048.03	0.0451357
2057.67	0.0419088
2067.32	0.0424254
2076.96	0.0419801
2086.6	0.0448772
2096.24	0.0436738
2105.89	0.0462877
2115.53	0.0441993
2125.17	0.0444249
2134.81	0.0434999
2144.45	0.0421377
2154.1	0.0445759
2163.74	0.0475943
2173.38	0.0444358
2183.02	0.0478325
2192.67	0.0465356
2202.31	0.0453411
2211.95	0.0492291
2221.59	0.051732
2231.24	0.0494144
2240.88	0.0508108
2250.52	0.0494586
2260.16	0.0510327
2269.8	0.0524766
2279.45	0.0533981
2289.09	0.0541495
2298.73	0.0533492
2308.38	0.0539655
2318.02	0.0533232
2327.66	0.0547326
2337.3	0.0532417
2346.94	0.0536754
2356.59	0.0536951
2366.23	0.0545223
2375.87	0.0540714
2385.51	0.0565252
2395.16	0.0544867
2404.8	0.0558629
2414.44	0.0546753
2424.08	0.0557993
2433.72	0.0570562
2443.37	0.056755
2453.01	0.0584864
2462.65	0.0594985
2472.29	0.0598364
2481.94	0.0592101
2491.58	0.058993
2501.22	0.0604501
2510.86	0.0602355
2520.51	0.0610859
2530.15	0.0602834
2539.79	0.0606854
2549.43	0.0626569
2559.07	0.0625987
2568.72	0.0631041
2578.36	0.0620093
2588	0.0640022
2597.64	0.0629945
2607.29	0.064327
2616.93	0.0654312
2626.57	0.066545
2636.21	0.0660438
2645.86	0.0662794
2655.5	0.0671087
2665.14	0.0670831
2674.78	0.0667053
2684.43	0.0682476
2694.07	0.06684
2703.71	0.0678951
2713.35	0.0684399
2722.99	0.0689414
2732.64	0.0697929
2742.28	0.0707557
2751.92	0.0711748
2761.56	0.0722106
2771.21	0.0728403
2780.85	0.072374
2790.49	0.0739151
2800.13	0.0738988
2809.78	0.0739305
2819.42	0.0740495
2829.06	0.0756475
2838.7	0.0749247
2848.34	0.0748463
2857.99	0.0753133
2867.63	0.0777283
2877.27	0.0775205
2886.91	0.0779616
2896.56	0.078473
2906.2	0.0807924
2915.84	0.0797976
2925.48	0.0785709
2935.13	0.0797174
2944.77	0.0799883
2954.41	0.0819802
2964.05	0.0837374
2973.7	0.0813128
2983.34	0.0816574
2992.98	0.0821626
3002.62	0.085231
3012.26	0.0863695
3021.91	0.0866482
3031.55	0.0871454
3041.19	0.0874095
3050.83	0.0882459
3060.48	0.0910349
3070.12	0.0915176
3079.76	0.0923186
3089.4	0.093714
3099.05	0.0937021
3108.69	0.0959496
3118.33	0.0966204
3127.97	0.09879
3137.61	0.100951
3147.26	0.100518
3156.9	0.10293
3166.54	0.106346
3176.18	0.109818
3185.83	0.111411
3195.47	0.113668
3205.11	0.114513
3214.75	0.11978
3224.4	0.123805
3234.04	0.127755
3243.68	0.130098
3253.32	0.135918
3262.97	0.144745
3272.61	0.152027
3282.25	0.160251
3291.89	0.16702
3301.53	0.179334
3311.18	0.1968
3320.82	0.213863
3330.46	0.230765
3340.1	0.24245
3349.75	0.242397
3359.39	0.247469
3369.03	0.25728
3378.67	0.274911
3388.32	0.301792
3397.96	0.337329
3407.6	0.38668
3417.24	0.474978
3426.89	0.614045
3436.53	0.670737
3446.17	0.53417
3455.81	0.569169
3465.45	0.507329
3475.1	0.401368
3484.74	0.293253
3494.38	0.226327
3504.02	0.198143
3513.67	0.167933
3523.31	0.140843
3532.95	0.121444
3542.59	0.0963482
3552.24	0.082706
3561.88	0.0778866
3571.52	0.0701012
3581.16	0.0728647
3590.8	0.0655635
3600.45	0.0680075
3610.09	0.0721325
3619.73	0.0689606
3629.37	0.0706781
3639.02	0.0746069
3648.66	0.0778792
3658.3	0.0741878
3667.94	0.0761883
3677.59	0.0789196
3687.23	0.0781054
3696.87	0.0772017
3706.51	0.0827372
3716.16	0.079106
3725.8	0.0840279
3735.44	0.0786074
3745.08	0.0874011
3754.72	0.0853363
3764.37	0.0847673
3774.01	0.0818788
3783.65	0.0850784
3793.29	0.0890156
3802.94	0.0821093
3812.58	0.0886547
3822.22	0.0854031
3831.86	0.088627
3841.51	0.0904554
3851.15	0.0870489
3860.79	0.0901116
3870.43	0.0916756
3880.07	0.0921054
3889.72	0.0909208
3899.36	0.0908296
3909	0.0967664
3918.64	0.0936627
3928.29	0.0899212
3937.93	0.0964927
3947.57	0.0931997
3957.21	0.0942181
3966.86	0.0964066
3976.5	0.0937408
3986.14	0.0985237
3995.78	0.0977313
