Measurement: Infrared, Infrared Data Processed
Mineral: Diaboleite
Rruff sample: R050372
Ideal chemistry: Cu^2+^Pb^2+^_2_Cl_2_(OH)_4_
Locality: Collins Vein, Mammoth mine, Tiger, Arizona
Source: Eugene Schlepp
Description: Blue massive fragment
Measured chemistry: (Cu_0.91_Pb_0.09_)_Î£=1_Pb_2.00_Cl_2.00_(OH)_4_
x	intensity
399.193	0.0455767
408.835	0.0487282
418.477	0.0589622
428.12	0.0950278
437.762	0.198899
447.404	0.106684
457.047	0.0521318
466.689	0.0525266
476.331	0.045472
485.974	0.0345547
495.616	0.029703
505.258	0.0292661
514.901	0.0289666
524.543	0.0286835
534.185	0.0286041
543.828	0.0296282
553.47	0.0339944
563.112	0.0393689
572.755	0.0471059
582.397	0.0587911
592.039	0.0764504
601.682	0.0932734
611.324	0.0977038
620.966	0.116588
630.609	0.152758
640.251	0.186845
649.893	0.232791
659.536	0.27507
669.178	0.29502
678.82	0.272288
688.463	0.21211
698.105	0.1479
707.747	0.105049
717.39	0.0839581
727.032	0.0712747
736.674	0.0609258
746.317	0.0528505
755.959	0.0493947
765.601	0.0494116
775.244	0.0543234
784.886	0.0586918
794.528	0.0573707
804.171	0.0529724
813.813	0.0532528
823.455	0.0607057
833.098	0.0777549
842.74	0.101165
852.382	0.116042
862.025	0.102051
871.667	0.0759039
881.309	0.0559564
890.952	0.0440864
900.594	0.0385407
910.236	0.0356641
919.879	0.0340179
929.521	0.0341084
939.163	0.0339524
948.806	0.0346045
958.448	0.0374519
968.09	0.0413114
977.733	0.0409451
987.375	0.0418632
997.017	0.0450995
1006.66	0.0478275
1016.3	0.0514293
1025.94	0.0555823
1035.59	0.0603039
1045.23	0.0651577
1054.87	0.0694036
1064.51	0.0716088
1074.16	0.0724266
1083.8	0.0731231
1093.44	0.0716227
1103.08	0.0698296
1112.72	0.0678143
1122.37	0.0653594
1132.01	0.0629838
1141.65	0.0614987
1151.3	0.0604254
1160.94	0.0617013
1170.58	0.0629206
1180.22	0.0633056
1189.86	0.0631262
1199.51	0.0600483
1209.15	0.0580081
1218.79	0.0567397
1228.43	0.055825
1238.08	0.0561471
1247.72	0.0563269
1257.36	0.0570853
1267	0.0575358
1276.64	0.0585292
1286.29	0.0588119
1295.93	0.0594259
1305.57	0.0604572
1315.21	0.0623565
1324.86	0.0646126
1334.5	0.0668655
1344.14	0.0693725
1353.78	0.0706132
1363.43	0.07079
1373.07	0.0714388
1382.71	0.0716879
1392.35	0.0716594
1401.99	0.0718713
1411.64	0.071773
1421.28	0.0713283
1430.92	0.0715117
1440.57	0.0710354
1450.21	0.0702853
1459.85	0.0697128
1469.49	0.0689533
1479.13	0.0674715
1488.78	0.0669918
1498.42	0.0678697
1508.06	0.0695186
1517.7	0.0713564
1527.35	0.0727304
1536.99	0.0737157
1546.63	0.0737077
1556.27	0.0728449
1565.91	0.0721238
1575.56	0.0712869
1585.2	0.0704452
1594.84	0.070197
1604.48	0.0702402
1614.13	0.0700158
1623.77	0.069616
1633.41	0.0689947
1643.05	0.0688474
1652.7	0.0686504
1662.34	0.0675966
1671.98	0.0671409
1681.62	0.0662349
1691.27	0.0658065
1700.91	0.0655462
1710.55	0.0643313
1720.19	0.0653463
1729.84	0.0655588
1739.48	0.0641127
1749.12	0.0624158
1758.76	0.0613272
1768.4	0.0611581
1778.05	0.0608755
1787.69	0.0613224
1797.33	0.0612332
1806.97	0.0625296
1816.62	0.0624598
1826.26	0.0627537
1835.9	0.0630064
1845.54	0.0641692
1855.18	0.0646029
1864.83	0.0648876
1874.47	0.0656683
1884.11	0.0657964
1893.75	0.0671348
1903.4	0.0679681
1913.04	0.0667965
1922.68	0.0683339
1932.32	0.0682623
1941.97	0.0670589
1951.61	0.0678729
1961.25	0.0663811
1970.89	0.0732767
1980.54	0.0744748
1990.18	0.0724201
1999.82	0.071979
2009.46	0.0696392
2019.11	0.0737135
2028.75	0.0754884
2038.39	0.0752352
2048.03	0.0793834
2057.67	0.0746088
2067.32	0.0765139
2076.96	0.0759818
2086.6	0.0779115
2096.24	0.0778227
2105.89	0.0802174
2115.53	0.0799399
2125.17	0.0772024
2134.81	0.0796494
2144.45	0.0812668
2154.1	0.0764579
2163.74	0.0818752
2173.38	0.0795771
2183.02	0.084254
2192.67	0.0829179
2202.31	0.0848231
2211.95	0.0841015
2221.59	0.0862497
2231.24	0.0850481
2240.88	0.0886258
2250.52	0.0880225
2260.16	0.0883758
2269.8	0.0871337
2279.45	0.0904236
2289.09	0.0911059
2298.73	0.0920593
2308.38	0.0932069
2318.02	0.0929562
2327.66	0.092563
2337.3	0.0932149
2346.94	0.0940525
2356.59	0.0945644
2366.23	0.0956873
2375.87	0.0951509
2385.51	0.0958438
2395.16	0.0958507
2404.8	0.097613
2414.44	0.0985399
2424.08	0.0993159
2433.72	0.0999106
2443.37	0.100171
2453.01	0.102166
2462.65	0.101422
2472.29	0.101106
2481.94	0.103212
2491.58	0.102272
2501.22	0.103152
2510.86	0.10604
2520.51	0.106697
2530.15	0.108107
2539.79	0.107468
2549.43	0.108091
2559.07	0.108552
2568.72	0.110347
2578.36	0.110755
2588	0.11136
2597.64	0.11095
2607.29	0.111415
2616.93	0.113199
2626.57	0.113856
2636.21	0.114976
2645.86	0.1156
2655.5	0.114496
2665.14	0.116111
2674.78	0.117178
2684.43	0.116584
2694.07	0.117465
2703.71	0.118883
2713.35	0.121034
2722.99	0.1204
2732.64	0.122113
2742.28	0.123174
2751.92	0.123755
2761.56	0.124175
2771.21	0.126315
2780.85	0.125732
2790.49	0.126369
2800.13	0.127866
2809.78	0.128843
2819.42	0.131095
2829.06	0.132308
2838.7	0.135339
2848.34	0.142141
2857.99	0.14288
2867.63	0.137793
2877.27	0.139359
2886.91	0.140983
2896.56	0.144759
2906.2	0.148109
2915.84	0.155412
2925.48	0.159461
2935.13	0.15218
2944.77	0.148753
2954.41	0.150781
2964.05	0.148755
2973.7	0.147721
2983.34	0.147689
2992.98	0.148758
3002.62	0.149115
3012.26	0.151225
3021.91	0.154007
3031.55	0.155815
3041.19	0.157724
3050.83	0.158238
3060.48	0.159744
3070.12	0.162046
3079.76	0.162107
3089.4	0.165554
3099.05	0.167557
3108.69	0.168773
3118.33	0.173482
3127.97	0.176355
3137.61	0.179847
3147.26	0.182091
3156.9	0.184487
3166.54	0.188475
3176.18	0.189958
3185.83	0.197457
3195.47	0.202247
3205.11	0.205108
3214.75	0.21168
3224.4	0.217403
3234.04	0.227253
3243.68	0.233597
3253.32	0.242016
3262.97	0.250685
3272.61	0.261533
3282.25	0.27938
3291.89	0.292581
3301.53	0.310527
3311.18	0.335843
3320.82	0.359055
3330.46	0.386851
3340.1	0.39319
3349.75	0.394167
3359.39	0.405373
3369.03	0.417069
3378.67	0.438817
3388.32	0.4829
3397.96	0.533187
3407.6	0.605363
3417.24	0.720279
3426.89	0.882714
3436.53	0.906648
3446.17	0.710415
3455.81	0.703967
3465.45	0.610455
3475.1	0.482992
3484.74	0.356314
3494.38	0.278992
3504.02	0.243299
3513.67	0.214675
3523.31	0.199858
3532.95	0.171251
3542.59	0.139236
3552.24	0.128019
3561.88	0.122044
3571.52	0.118826
3581.16	0.114858
3590.8	0.114754
3600.45	0.113001
3610.09	0.117322
3619.73	0.116036
3629.37	0.120957
3639.02	0.120221
3648.66	0.124526
3658.3	0.123561
3667.94	0.127198
3677.59	0.133768
3687.23	0.13286
3696.87	0.140137
3706.51	0.137707
3716.16	0.142317
3725.8	0.140521
3735.44	0.14188
3745.08	0.143332
3754.72	0.146146
3764.37	0.144718
3774.01	0.151516
3783.65	0.148727
3793.29	0.150329
3802.94	0.155719
3812.58	0.155616
3822.22	0.158648
3831.86	0.158974
3841.51	0.163086
3851.15	0.161129
3860.79	0.157274
3870.43	0.162594
3880.07	0.163875
3889.72	0.164217
3899.36	0.163738
3909	0.167813
3918.64	0.171092
3928.29	0.171216
3937.93	0.169751
3947.57	0.168967
3957.21	0.170208
3966.86	0.172413
3976.5	0.170072
3986.14	0.179376
3995.78	0.181281
