Measurement: Infrared, Infrared Data Processed
Mineral: Dioptase
Rruff sample: R050010
Ideal chemistry: Cu^2+^SiO_3_H_2_O
Locality: Tsumeb mine, Tsumeb, Otavi District, Oshikoto, Namibia
Source: Eugene Schlepp
Description: Bluish green single crystals
Measured chemistry: Cu_1.00_Si_1.00_O_3_Â·H_2_O ; trace amounts of Mg and Al; OH estimated by difference
x	intensity
399.193	0
408.835	0.20303
418.477	0.103665
428.12	0.108403
437.762	0.163247
447.404	0.21567
457.047	0.218776
466.689	0.151826
476.331	0.165236
485.974	0.177039
495.616	0.21341
505.258	0.256611
514.901	0.245713
524.543	0.17015
534.185	0.119627
543.828	0.112244
553.47	0.10364
563.112	0.142182
572.755	0.175343
582.397	0.110354
592.039	0.0600817
601.682	0.0443358
611.324	0.0530465
620.966	0.0435574
630.609	0.0375263
640.251	0.0366746
649.893	0.0375829
659.536	0.0392437
669.178	0.0448275
678.82	0.0520114
688.463	0.0481701
698.105	0.0536205
707.747	0.0645237
717.39	0.0779939
727.032	0.0888303
736.674	0.0921904
746.317	0.0994765
755.959	0.121778
765.601	0.166225
775.244	0.193564
784.886	0.149199
794.528	0.0914841
804.171	0.0669045
813.813	0.0666555
823.455	0.071737
833.098	0.0791646
842.74	0.0892478
852.382	0.102366
862.025	0.127844
871.667	0.176669
881.309	0.231117
890.952	0.216321
900.594	0.214537
910.236	0.267228
919.879	0.329699
929.521	0.367432
939.163	0.328314
948.806	0.337981
958.448	0.30846
968.09	0.247328
977.733	0.203985
987.375	0.239442
997.017	0.25915
1006.66	0.193993
1016.3	0.141812
1025.94	0.109131
1035.59	0.0808224
1045.23	0.0541457
1054.87	0.0349269
1064.51	0.0255146
1074.16	0.018994
1083.8	0.0153487
1093.44	0.0133029
1103.08	0.0117845
1112.72	0.0108394
1122.37	0.0103291
1132.01	0.00972922
1141.65	0.00957851
1151.3	0.00875267
1160.94	0.00829948
1170.58	0.0080168
1180.22	0.00782153
1189.86	0.00754105
1199.51	0.00725253
1209.15	0.00691306
1218.79	0.00709357
1228.43	0.00720908
1238.08	0.00737159
1247.72	0.00744665
1257.36	0.00775115
1267	0.00760891
1276.64	0.00839524
1286.29	0.00851605
1295.93	0.00913842
1305.57	0.00962001
1315.21	0.010104
1324.86	0.0103784
1334.5	0.0110356
1344.14	0.0114997
1353.78	0.0122449
1363.43	0.0132581
1373.07	0.0141806
1382.71	0.0152264
1392.35	0.0170075
1401.99	0.018812
1411.64	0.0207539
1421.28	0.0225415
1430.92	0.0245562
1440.57	0.0260861
1450.21	0.0270526
1459.85	0.0274254
1469.49	0.0263035
1479.13	0.025004
1488.78	0.0231843
1498.42	0.0213858
1508.06	0.0196294
1517.7	0.0174983
1527.35	0.0162784
1536.99	0.015488
1546.63	0.015021
1556.27	0.0155237
1565.91	0.0166671
1575.56	0.0162614
1585.2	0.0172862
1594.84	0.0172923
1604.48	0.0170393
1614.13	0.0165712
1623.77	0.0153425
1633.41	0.0148725
1643.05	0.0138006
1652.7	0.0133776
1662.34	0.0134268
1671.98	0.01386
1681.62	0.0136304
1691.27	0.0133484
1700.91	0.0121473
1710.55	0.0116062
1720.19	0.0106979
1729.84	0.0100963
1739.48	0.0083142
1749.12	0.00810938
1758.76	0.00834391
1768.4	0.00807714
1778.05	0.00826527
1787.69	0.00855949
1797.33	0.00842313
1806.97	0.00838442
1816.62	0.00765216
1826.26	0.00772289
1835.9	0.00757725
1845.54	0.0073393
1855.18	0.00785698
1864.83	0.00721749
1874.47	0.00693031
1884.11	0.00598167
1893.75	0.0061603
1903.4	0.00677539
1913.04	0.00682204
1922.68	0.00537067
1932.32	0.00454398
1941.97	0.00524722
1951.61	0.00424715
1961.25	0.0027123
1970.89	0.00227819
1980.54	0.00825667
1990.18	0.00252935
1999.82	0.00274993
2009.46	0.00262383
2019.11	0.00248515
2028.75	0.00411424
2038.39	0.00771427
2048.03	0.0103101
2057.67	0.00939093
2067.32	0.00951442
2076.96	0.0124441
2086.6	0.0113034
2096.24	0.0107038
2105.89	0.0121417
2115.53	0.0130058
2125.17	0.0107815
2134.81	0.00897772
2144.45	0.0097189
2154.1	0.00677175
2163.74	0.0150532
2173.38	0.0128409
2183.02	0.0110907
2192.67	0.0139382
2202.31	0.0130519
2211.95	0.0106432
2221.59	0.0149407
2231.24	0.0137065
2240.88	0.0136084
2250.52	0.0129461
2260.16	0.0127018
2269.8	0.0146776
2279.45	0.0153047
2289.09	0.0152865
2298.73	0.0150257
2308.38	0.0149505
2318.02	0.0159581
2327.66	0.0142505
2337.3	0.0142682
2346.94	0.0138907
2356.59	0.0136194
2366.23	0.0129582
2375.87	0.0132464
2385.51	0.01359
2395.16	0.0133283
2404.8	0.0140949
2414.44	0.0147144
2424.08	0.013891
2433.72	0.0143915
2443.37	0.0143409
2453.01	0.0149387
2462.65	0.0146253
2472.29	0.014569
2481.94	0.0149229
2491.58	0.0152503
2501.22	0.0149385
2510.86	0.0153005
2520.51	0.0153206
2530.15	0.0155274
2539.79	0.0149336
2549.43	0.0162251
2559.07	0.0171168
2568.72	0.0177134
2578.36	0.0159783
2588	0.0167413
2597.64	0.0176538
2607.29	0.0182664
2616.93	0.0180785
2626.57	0.0181888
2636.21	0.0186469
2645.86	0.0186057
2655.5	0.0185714
2665.14	0.0180332
2674.78	0.0178106
2684.43	0.0178746
2694.07	0.0183754
2703.71	0.0189538
2713.35	0.0186525
2722.99	0.019845
2732.64	0.0194951
2742.28	0.0198149
2751.92	0.0193951
2761.56	0.021038
2771.21	0.0210752
2780.85	0.020728
2790.49	0.0211314
2800.13	0.0225278
2809.78	0.0219416
2819.42	0.0225985
2829.06	0.0234793
2838.7	0.0231806
2848.34	0.02386
2857.99	0.0245142
2867.63	0.0249287
2877.27	0.0266123
2886.91	0.0268063
2896.56	0.0267694
2906.2	0.0278925
2915.84	0.02704
2925.48	0.0290937
2935.13	0.0283919
2944.77	0.031187
2954.41	0.0299221
2964.05	0.0318756
2973.7	0.0332805
2983.34	0.0349288
2992.98	0.0358948
3002.62	0.0367062
3012.26	0.0381472
3021.91	0.0390385
3031.55	0.0411958
3041.19	0.0413396
3050.83	0.042334
3060.48	0.0451104
3070.12	0.0463082
3079.76	0.0477392
3089.4	0.0494665
3099.05	0.0514712
3108.69	0.0524223
3118.33	0.0529912
3127.97	0.0559684
3137.61	0.0584519
3147.26	0.0607012
3156.9	0.0613982
3166.54	0.0625574
3176.18	0.0653892
3185.83	0.0675422
3195.47	0.0715345
3205.11	0.0715784
3214.75	0.074059
3224.4	0.0731112
3234.04	0.0736351
3243.68	0.0733218
3253.32	0.0737767
3262.97	0.0732877
3272.61	0.073559
3282.25	0.0752024
3291.89	0.0766918
3301.53	0.080399
3311.18	0.0855109
3320.82	0.0966608
3330.46	0.109684
3340.1	0.13386
3349.75	0.159524
3359.39	0.177002
3369.03	0.169166
3378.67	0.143598
3388.32	0.117888
3397.96	0.0953924
3407.6	0.0783947
3417.24	0.0645519
3426.89	0.054721
3436.53	0.0504303
3446.17	0.0434848
3455.81	0.0383283
3465.45	0.038297
3475.1	0.0342994
3484.74	0.0335294
3494.38	0.0299572
3504.02	0.0296438
3513.67	0.02778
3523.31	0.0254038
3532.95	0.0236302
3542.59	0.0228566
3552.24	0.019501
3561.88	0.0190019
3571.52	0.0176482
3581.16	0.0149331
3590.8	0.0153564
3600.45	0.0144881
3610.09	0.0147241
3619.73	0.0109174
3629.37	0.0136001
3639.02	0.0114959
3648.66	0.0132368
3658.3	0.0120086
3667.94	0.0121592
3677.59	0.0124503
3687.23	0.0120281
3696.87	0.0108815
3706.51	0.0131317
3716.16	0.010873
3725.8	0.0119857
3735.44	0.011122
3745.08	0.011389
3754.72	0.0148153
3764.37	0.0116458
3774.01	0.0125604
3783.65	0.0135604
3793.29	0.0143121
3802.94	0.0146487
3812.58	0.015627
3822.22	0.0145209
3831.86	0.0130145
3841.51	0.0125387
3851.15	0.0124088
3860.79	0.012291
3870.43	0.0123436
3880.07	0.0151313
3889.72	0.0155094
3899.36	0.011913
3909	0.0141099
3918.64	0.0138141
3928.29	0.0143274
3937.93	0.0134103
3947.57	0.0139065
3957.21	0.0154792
3966.86	0.0155821
3976.5	0.0144069
3986.14	0.0171455
3995.78	0.0154628
