Measurement: Infrared, Infrared Data Processed
Mineral: Diopside
Rruff sample: R040097
Ideal chemistry: CaMgSi_2_O_6_
Locality: Fassathal, Tyrol
Source: University of Arizona Mineral Museum
Description: Green prismatic crystals
Measured chemistry: Ca_1.00_(Mg_0.83_Al_0.10_Fe_0.09_Ca_0.02_Ti_0.02_)(Si_0.88_Al_0.12_)_2_O_6_
x	intensity
399.193	0
408.835	0.176505
418.477	0.144271
428.12	0.151021
437.762	0.161718
447.404	0.183011
457.047	0.197166
466.689	0.202414
476.331	0.196315
485.974	0.178138
495.616	0.167572
505.258	0.1724
514.901	0.159974
524.543	0.134288
534.185	0.110416
543.828	0.0932999
553.47	0.0770591
563.112	0.0607378
572.755	0.0457983
582.397	0.0343041
592.039	0.0286675
601.682	0.0314576
611.324	0.0369098
620.966	0.0420406
630.609	0.05569
640.251	0.046146
649.893	0.0358292
659.536	0.0397922
669.178	0.0468907
678.82	0.0338617
688.463	0.0264177
698.105	0.0252642
707.747	0.0255628
717.39	0.0269981
727.032	0.0312046
736.674	0.0390523
746.317	0.0505443
755.959	0.0606232
765.601	0.063896
775.244	0.0691362
784.886	0.0767991
794.528	0.085511
804.171	0.0994629
813.813	0.119998
823.455	0.14179
833.098	0.160981
842.74	0.185164
852.382	0.204933
862.025	0.210033
871.667	0.205613
881.309	0.193825
890.952	0.181492
900.594	0.172902
910.236	0.168536
919.879	0.158195
929.521	0.13519
939.163	0.130817
948.806	0.147042
958.448	0.166132
968.09	0.157594
977.733	0.12748
987.375	0.0986725
997.017	0.0787559
1006.66	0.0695468
1016.3	0.0739269
1025.94	0.0851331
1035.59	0.0963568
1045.23	0.117089
1054.87	0.141866
1064.51	0.154466
1074.16	0.135254
1083.8	0.103968
1093.44	0.0766397
1103.08	0.0540352
1112.72	0.0361263
1122.37	0.0226113
1132.01	0.013471
1141.65	0.00889887
1151.3	0.00655282
1160.94	0.00537064
1170.58	0.00426495
1180.22	0.00375099
1189.86	0.00327507
1199.51	0.00293774
1209.15	0.00271127
1218.79	0.00258457
1228.43	0.00238576
1238.08	0.00247749
1247.72	0.0024768
1257.36	0.00256727
1267	0.00257062
1276.64	0.00234142
1286.29	0.00255029
1295.93	0.0026089
1305.57	0.0025528
1315.21	0.00312848
1324.86	0.00312674
1334.5	0.00335414
1344.14	0.0034804
1353.78	0.00361328
1363.43	0.00423807
1373.07	0.00430572
1382.71	0.00445456
1392.35	0.00478715
1401.99	0.00493379
1411.64	0.00530186
1421.28	0.00570001
1430.92	0.00565682
1440.57	0.00561996
1450.21	0.00581495
1459.85	0.00592536
1469.49	0.00588703
1479.13	0.00590434
1488.78	0.00565108
1498.42	0.00586445
1508.06	0.00650406
1517.7	0.00642333
1527.35	0.00703574
1536.99	0.00730303
1546.63	0.00815483
1556.27	0.00863335
1565.91	0.00881328
1575.56	0.0087173
1585.2	0.00902224
1594.84	0.00878921
1604.48	0.00845513
1614.13	0.00848011
1623.77	0.00883153
1633.41	0.00806008
1643.05	0.00812747
1652.7	0.00760818
1662.34	0.00727181
1671.98	0.00733681
1681.62	0.00640193
1691.27	0.00643594
1700.91	0.00635176
1710.55	0.00612805
1720.19	0.00603377
1729.84	0.00604957
1739.48	0.00563388
1749.12	0.00614146
1758.76	0.00602122
1768.4	0.00556049
1778.05	0.00575326
1787.69	0.00577954
1797.33	0.00652829
1806.97	0.0055449
1816.62	0.00577178
1826.26	0.00618135
1835.9	0.00611943
1845.54	0.00556166
1855.18	0.00604734
1864.83	0.00577314
1874.47	0.00722478
1884.11	0.00613954
1893.75	0.00659722
1903.4	0.00566538
1913.04	0.00480903
1922.68	0.00515615
1932.32	0.00407438
1941.97	0.00576824
1951.61	0.00353307
1961.25	0.00379623
1970.89	0.0037911
1980.54	0.00831899
1990.18	0.0071456
1999.82	0.00723788
2009.46	0.00718102
2019.11	0.00554108
2028.75	0.0050156
2038.39	0.0065131
2048.03	0.00812299
2057.67	0.00827236
2067.32	0.0075276
2076.96	0.00699643
2086.6	0.00770588
2096.24	0.00667961
2105.89	0.0062578
2115.53	0.00534722
2125.17	0.00509565
2134.81	0.0045808
2144.45	0.00274772
2154.1	-0.00132805
2163.74	0.00321696
2173.38	0.00657898
2183.02	0.00745167
2192.67	0.00773141
2202.31	0.00745743
2211.95	0.00873059
2221.59	0.00860412
2231.24	0.0108449
2240.88	0.0115103
2250.52	0.0111283
2260.16	0.0118845
2269.8	0.0122239
2279.45	0.013628
2289.09	0.0127085
2298.73	0.0134708
2308.38	0.0132319
2318.02	0.0133809
2327.66	0.0127002
2337.3	0.0122028
2346.94	0.0122234
2356.59	0.012952
2366.23	0.0124348
2375.87	0.0126736
2385.51	0.010988
2395.16	0.0115096
2404.8	0.0105661
2414.44	0.0118919
2424.08	0.0122515
2433.72	0.0124303
2443.37	0.0125591
2453.01	0.0128503
2462.65	0.0131213
2472.29	0.0128519
2481.94	0.0127316
2491.58	0.0122941
2501.22	0.0126696
2510.86	0.013469
2520.51	0.0136026
2530.15	0.0136871
2539.79	0.0132745
2549.43	0.0132948
2559.07	0.0145025
2568.72	0.0134476
2578.36	0.0136127
2588	0.0152776
2597.64	0.0137621
2607.29	0.0147452
2616.93	0.0151818
2626.57	0.01472
2636.21	0.0155708
2645.86	0.0152447
2655.5	0.0150064
2665.14	0.0134129
2674.78	0.0142789
2684.43	0.014054
2694.07	0.0135423
2703.71	0.0148034
2713.35	0.0139744
2722.99	0.0137515
2732.64	0.0142063
2742.28	0.0145426
2751.92	0.0146888
2761.56	0.014745
2771.21	0.014935
2780.85	0.0143153
2790.49	0.0159453
2800.13	0.0147094
2809.78	0.0157365
2819.42	0.015538
2829.06	0.0153425
2838.7	0.0156077
2848.34	0.0165278
2857.99	0.0153878
2867.63	0.0150458
2877.27	0.0162912
2886.91	0.0156189
2896.56	0.0156669
2906.2	0.0153922
2915.84	0.0166778
2925.48	0.0166591
2935.13	0.0163766
2944.77	0.0158033
2954.41	0.0155338
2964.05	0.0163164
2973.7	0.0165822
2983.34	0.0154823
2992.98	0.0171122
3002.62	0.0164474
3012.26	0.0166823
3021.91	0.0174283
3031.55	0.0170297
3041.19	0.0176652
3050.83	0.0170646
3060.48	0.0168418
3070.12	0.017404
3079.76	0.0174792
3089.4	0.0170356
3099.05	0.0174454
3108.69	0.0184967
3118.33	0.0189921
3127.97	0.0187549
3137.61	0.0195323
3147.26	0.0190621
3156.9	0.0185816
3166.54	0.0194179
3176.18	0.0195572
3185.83	0.0197903
3195.47	0.0196783
3205.11	0.0200113
3214.75	0.0196855
3224.4	0.0197326
3234.04	0.0204689
3243.68	0.0204236
3253.32	0.0206527
3262.97	0.0205639
3272.61	0.0222355
3282.25	0.0225854
3291.89	0.0213567
3301.53	0.0208004
3311.18	0.0214984
3320.82	0.0222946
3330.46	0.0214019
3340.1	0.020314
3349.75	0.0206532
3359.39	0.0211526
3369.03	0.0217697
3378.67	0.0232814
3388.32	0.0218634
3397.96	0.0233205
3407.6	0.0232724
3417.24	0.0226303
3426.89	0.0215839
3436.53	0.022941
3446.17	0.0228591
3455.81	0.0220824
3465.45	0.0226545
3475.1	0.022657
3484.74	0.0224448
3494.38	0.0219128
3504.02	0.0229792
3513.67	0.0234875
3523.31	0.0226952
3532.95	0.0235629
3542.59	0.0234821
3552.24	0.0250193
3561.88	0.0226725
3571.52	0.0219432
3581.16	0.023286
3590.8	0.0209777
3600.45	0.0203668
3610.09	0.0234784
3619.73	0.0210646
3629.37	0.0204739
3639.02	0.021861
3648.66	0.0209428
3658.3	0.0207735
3667.94	0.0199542
3677.59	0.0196798
3687.23	0.0207478
3696.87	0.0198731
3706.51	0.0200493
3716.16	0.016462
3725.8	0.0163606
3735.44	0.018422
3745.08	0.0170954
3754.72	0.0193196
3764.37	0.0183343
3774.01	0.0187384
3783.65	0.0226994
3793.29	0.0211212
3802.94	0.0187038
3812.58	0.022698
3822.22	0.0193673
3831.86	0.0210311
3841.51	0.0199132
3851.15	0.0215719
3860.79	0.0204431
3870.43	0.0202994
3880.07	0.0212278
3889.72	0.0182434
3899.36	0.020487
3909	0.0193571
3918.64	0.0209655
3928.29	0.0201081
3937.93	0.0204654
3947.57	0.0197168
3957.21	0.0210132
3966.86	0.0206327
3976.5	0.0210375
3986.14	0.0208141
3995.78	0.0199516
