Measurement: Infrared, Infrared Data Processed
Mineral: Diopside
Rruff sample: R050666
Ideal chemistry: CaMgSi_2_O_6_
Locality: Franklin, Sussex County, New Jersey, USA
Source: University of Arizona Mineral Museum
Description: Brown cleavage fragment with white hardystonite
Measured chemistry: Ca(Mg_0.66_Mn_0.33_Fe_0.01_)Si_2_O_6_
x	intensity
399.193	0.148635
408.835	0.12887
418.477	0.102728
428.12	0.122532
437.762	0.172223
447.404	0.221046
457.047	0.23319
466.689	0.260217
476.331	0.223161
485.974	0.184757
495.616	0.196906
505.258	0.195292
514.901	0.167787
524.543	0.135425
534.185	0.111876
543.828	0.0896515
553.47	0.0676821
563.112	0.0474345
572.755	0.0339897
582.397	0.0260537
592.039	0.0256945
601.682	0.0293872
611.324	0.0434693
620.966	0.0679544
630.609	0.0686081
640.251	0.0381552
649.893	0.0258248
659.536	0.0315875
669.178	0.0552343
678.82	0.0296177
688.463	0.0215573
698.105	0.0209391
707.747	0.0202432
717.39	0.0215917
727.032	0.023775
736.674	0.0278231
746.317	0.0317313
755.959	0.0370149
765.601	0.0438924
775.244	0.0521538
784.886	0.0631226
794.528	0.0775534
804.171	0.0963188
813.813	0.121593
823.455	0.154505
833.098	0.197796
842.74	0.243999
852.382	0.265107
862.025	0.261558
871.667	0.242648
881.309	0.224646
890.952	0.2109
900.594	0.203455
910.236	0.204257
919.879	0.183874
929.521	0.131269
939.163	0.14238
948.806	0.190062
958.448	0.20083
968.09	0.161424
977.733	0.122276
987.375	0.102323
997.017	0.0741369
1006.66	0.05071
1016.3	0.049469
1025.94	0.070673
1035.59	0.104494
1045.23	0.152383
1054.87	0.203537
1064.51	0.221319
1074.16	0.195639
1083.8	0.14912
1093.44	0.11041
1103.08	0.0810194
1112.72	0.0547601
1122.37	0.0332314
1132.01	0.0193627
1141.65	0.0117695
1151.3	0.0088455
1160.94	0.00689174
1170.58	0.00621403
1180.22	0.00472505
1189.86	0.00449398
1199.51	0.00424619
1209.15	0.00437077
1218.79	0.00398771
1228.43	0.00314271
1238.08	0.00349331
1247.72	0.00323925
1257.36	0.0032119
1267	0.00369477
1276.64	0.00394677
1286.29	0.00386297
1295.93	0.00406629
1305.57	0.00352424
1315.21	0.00409115
1324.86	0.00372902
1334.5	0.00404805
1344.14	0.00436216
1353.78	0.00448132
1363.43	0.00464248
1373.07	0.00505258
1382.71	0.00555745
1392.35	0.00647824
1401.99	0.00711201
1411.64	0.00731673
1421.28	0.0076049
1430.92	0.00799744
1440.57	0.0078611
1450.21	0.00809393
1459.85	0.00798701
1469.49	0.00793563
1479.13	0.00837592
1488.78	0.00866425
1498.42	0.00926036
1508.06	0.00881072
1517.7	0.0091864
1527.35	0.00848493
1536.99	0.00878779
1546.63	0.00914036
1556.27	0.00842108
1565.91	0.0084274
1575.56	0.00817871
1585.2	0.0082631
1594.84	0.00816096
1604.48	0.00847195
1614.13	0.00844128
1623.77	0.00877885
1633.41	0.00770426
1643.05	0.00838783
1652.7	0.00821557
1662.34	0.00750858
1671.98	0.00772681
1681.62	0.00760239
1691.27	0.00802241
1700.91	0.00765717
1710.55	0.00748202
1720.19	0.00745695
1729.84	0.00817615
1739.48	0.00700831
1749.12	0.00687824
1758.76	0.00792062
1768.4	0.00836681
1778.05	0.00765907
1787.69	0.00877758
1797.33	0.00803698
1806.97	0.00763179
1816.62	0.00766632
1826.26	0.00778535
1835.9	0.00821313
1845.54	0.00862854
1855.18	0.00810404
1864.83	0.0079522
1874.47	0.00910689
1884.11	0.00825878
1893.75	0.00750571
1903.4	0.00794136
1913.04	0.0087562
1922.68	0.00889704
1932.32	0.00828374
1941.97	0.00641302
1951.61	0.00710316
1961.25	0.00486284
1970.89	0.00497023
1980.54	0.00984792
1990.18	0.00514761
1999.82	0.00957672
2009.46	0.00482389
2019.11	0.00863988
2028.75	0.0104466
2038.39	0.0100258
2048.03	0.0117924
2057.67	0.0100476
2067.32	0.00972648
2076.96	0.0131145
2086.6	0.0110562
2096.24	0.00676224
2105.89	0.00601184
2115.53	0.00698618
2125.17	0.00735157
2134.81	0.00272234
2144.45	0.00798799
2154.1	0.00126467
2163.74	0.00607403
2173.38	0.00368618
2183.02	0.0108612
2192.67	0.00937259
2202.31	0.0101655
2211.95	0.00939552
2221.59	0.00881851
2231.24	0.0128396
2240.88	0.0127296
2250.52	0.0172201
2260.16	0.0135526
2269.8	0.012473
2279.45	0.0166705
2289.09	0.0168977
2298.73	0.0164678
2308.38	0.016981
2318.02	0.0163295
2327.66	0.0172825
2337.3	0.0164277
2346.94	0.0149692
2356.59	0.0160887
2366.23	0.015949
2375.87	0.0155518
2385.51	0.014713
2395.16	0.0140759
2404.8	0.0151062
2414.44	0.0162456
2424.08	0.0170781
2433.72	0.0167873
2443.37	0.0178146
2453.01	0.0176073
2462.65	0.0152632
2472.29	0.0158837
2481.94	0.0150052
2491.58	0.0173467
2501.22	0.0173694
2510.86	0.0161714
2520.51	0.0186631
2530.15	0.0158328
2539.79	0.0185555
2549.43	0.0189902
2559.07	0.0193794
2568.72	0.0190002
2578.36	0.0180085
2588	0.0180858
2597.64	0.0198341
2607.29	0.0207835
2616.93	0.0182926
2626.57	0.0208178
2636.21	0.0194187
2645.86	0.0201365
2655.5	0.0213345
2665.14	0.018336
2674.78	0.0202007
2684.43	0.0192712
2694.07	0.0195918
2703.71	0.0193081
2713.35	0.0191386
2722.99	0.0196672
2732.64	0.0192414
2742.28	0.0201134
2751.92	0.0211914
2761.56	0.0203444
2771.21	0.0221219
2780.85	0.0201197
2790.49	0.0208515
2800.13	0.0213468
2809.78	0.0209
2819.42	0.0213041
2829.06	0.0208289
2838.7	0.0213246
2848.34	0.018711
2857.99	0.0203002
2867.63	0.0215544
2877.27	0.0217465
2886.91	0.0211801
2896.56	0.0203683
2906.2	0.0215937
2915.84	0.0217372
2925.48	0.0192237
2935.13	0.0221338
2944.77	0.0228672
2954.41	0.0246258
2964.05	0.0248051
2973.7	0.0231574
2983.34	0.0240853
2992.98	0.0249096
3002.62	0.0239295
3012.26	0.0229462
3021.91	0.026364
3031.55	0.0244279
3041.19	0.0254651
3050.83	0.0252714
3060.48	0.0251938
3070.12	0.0260152
3079.76	0.028608
3089.4	0.0251116
3099.05	0.0249065
3108.69	0.0269301
3118.33	0.0235503
3127.97	0.0267669
3137.61	0.0259392
3147.26	0.0258965
3156.9	0.026515
3166.54	0.0266831
3176.18	0.0287635
3185.83	0.0264855
3195.47	0.027774
3205.11	0.0281909
3214.75	0.0279495
3224.4	0.0269178
3234.04	0.0279341
3243.68	0.0270132
3253.32	0.0256804
3262.97	0.0276724
3272.61	0.0263094
3282.25	0.0249677
3291.89	0.0243697
3301.53	0.0260383
3311.18	0.0250864
3320.82	0.0272824
3330.46	0.0266434
3340.1	0.0301499
3349.75	0.0266305
3359.39	0.0267421
3369.03	0.0267685
3378.67	0.0256685
3388.32	0.0286069
3397.96	0.0258259
3407.6	0.0298844
3417.24	0.0279001
3426.89	0.0281481
3436.53	0.0272964
3446.17	0.0252884
3455.81	0.0256079
3465.45	0.0270743
3475.1	0.0249062
3484.74	0.0324525
3494.38	0.0281207
3504.02	0.0258935
3513.67	0.0279328
3523.31	0.0268579
3532.95	0.0321688
3542.59	0.0290657
3552.24	0.0234015
3561.88	0.0262857
3571.52	0.0255494
3581.16	0.0244832
3590.8	0.0251337
3600.45	0.0231232
3610.09	0.0244698
3619.73	0.0234492
3629.37	0.0280787
3639.02	0.0290615
3648.66	0.0232857
3658.3	0.0293796
3667.94	0.0295707
3677.59	0.0209909
3687.23	0.0235771
3696.87	0.0247905
3706.51	0.0310078
3716.16	0.0270314
3725.8	0.024868
3735.44	0.0279644
3745.08	0.0282199
3754.72	0.0254994
3764.37	0.0249433
3774.01	0.0257026
3783.65	0.0243578
3793.29	0.0253782
3802.94	0.0227567
3812.58	0.0231084
3822.22	0.023463
3831.86	0.0268433
3841.51	0.0267072
3851.15	0.0250179
3860.79	0.0255705
3870.43	0.0245894
3880.07	0.0238544
3889.72	0.0224436
3899.36	0.0266375
3909	0.0267623
3918.64	0.0269706
3928.29	0.0283099
3937.93	0.0275702
3947.57	0.0264053
3957.21	0.0295016
3966.86	0.0267263
3976.5	0.02489
3986.14	0.0245659
3995.78	0.0312772
