Measurement: Infrared, Infrared Data Processed
Mineral: Diopside
Rruff sample: R040009
Ideal chemistry: CaMgSi_2_O_6_
Locality: Otter Lake, Quebec, Canada
Source: University of Arizona Mineral Museum
Description: Green square prismatic crystal associated with pale orange calcite
Measured chemistry: (Ca_0.97_Fe_0.02_Na_0.01_)_Σ=1_(Mg_0.97_Fe_0.02_Al_0.01_)_Σ=1_Si_2.00_O_6_; trace amounts of Mn and Ti
x	intensity
374.123	0.204013
383.765	0.220862
393.407	0.219542
403.05	0.197197
412.692	0.16257
422.334	0.136014
431.976	0.162507
441.619	0.189506
451.261	0.222693
460.904	0.234242
470.546	0.233355
480.188	0.218337
489.83	0.187302
499.473	0.195628
509.115	0.189192
518.758	0.151168
528.4	0.121395
538.042	0.102333
547.684	0.085517
557.327	0.0676115
566.969	0.0492194
576.611	0.0329469
586.254	0.0227325
595.896	0.0208256
605.538	0.022919
615.181	0.0316779
624.823	0.057425
634.466	0.0769277
644.108	0.0408182
653.75	0.0252172
663.393	0.0337537
673.035	0.0587241
682.677	0.0267613
692.319	0.0200681
701.962	0.0192286
711.604	0.0196006
721.246	0.020274
730.889	0.0219352
740.531	0.0250786
750.173	0.0297994
759.816	0.035957
769.458	0.0434317
779.101	0.0535095
788.743	0.0666126
798.385	0.0830783
808.028	0.103948
817.67	0.129981
827.312	0.161653
836.955	0.199799
846.597	0.241961
856.239	0.263302
865.881	0.260126
875.524	0.243271
885.166	0.222932
894.808	0.208815
904.451	0.200922
914.093	0.199427
923.736	0.179784
933.378	0.131179
943.02	0.146516
952.663	0.201105
962.305	0.219309
971.947	0.181303
981.59	0.13758
991.232	0.111091
1000.87	0.0921498
1010.52	0.0795539
1020.16	0.0818018
1029.8	0.100551
1039.44	0.127129
1049.09	0.163564
1058.73	0.200779
1068.37	0.211768
1078.01	0.18293
1087.65	0.138411
1097.3	0.101566
1106.94	0.0729575
1116.58	0.0477754
1126.22	0.0294748
1135.87	0.0170071
1145.51	0.0107786
1155.15	0.00824336
1164.79	0.0065423
1174.44	0.00532185
1184.08	0.00437447
1193.72	0.00359668
1203.36	0.00300936
1213.01	0.00249162
1222.65	0.00204245
1232.29	0.00176541
1241.93	0.00162314
1251.58	0.00131735
1261.22	0.00132201
1270.86	0.00102482
1280.5	0.00114772
1290.14	0.00104629
1299.79	0.00115154
1309.43	0.00128483
1319.07	0.00172453
1328.71	0.00157585
1338.36	0.00208815
1348	0.00242656
1357.64	0.003045
1367.28	0.00383736
1376.92	0.00449494
1386.57	0.00500288
1396.21	0.00599793
1405.85	0.00736227
1415.49	0.00863491
1425.14	0.0094609
1434.78	0.00996149
1444.42	0.0101104
1454.06	0.0100935
1463.71	0.00979126
1473.35	0.0094188
1482.99	0.00812362
1492.63	0.00771922
1502.28	0.00728725
1511.92	0.00684221
1521.56	0.00710683
1531.2	0.00691503
1540.85	0.00835218
1550.49	0.00794075
1560.13	0.00917429
1569.77	0.00874639
1579.41	0.00899494
1589.06	0.00869327
1598.7	0.00880541
1608.34	0.00834404
1617.98	0.00817534
1627.63	0.00742792
1637.27	0.00711162
1646.91	0.00650044
1656.55	0.00537863
1666.19	0.00467399
1675.84	0.00427994
1685.48	0.00413656
1695.12	0.00384054
1704.77	0.00319953
1714.41	0.00273394
1724.05	0.00250757
1733.69	0.00322821
1743.33	0.00201337
1752.98	0.00178787
1762.62	0.00182375
1772.26	0.00227414
1781.9	0.00195983
1791.55	0.0021759
1801.19	0.00226571
1810.83	0.00227628
1820.47	0.00226535
1830.12	0.00238998
1839.76	0.00244329
1849.4	0.00262669
1859.04	0.00274625
1868.68	0.00319924
1878.33	0.00268476
1887.97	0.00301009
1897.61	0.00297819
1907.25	0.00240661
1916.9	0.00263545
1926.54	0.00144536
1936.18	0.00258911
1945.82	0.00202863
1955.46	0.00194801
1965.11	0.003163
1974.75	0.00317202
1984.39	0.00400405
1994.04	0.00420905
2003.68	0.00365326
2013.32	0.00297248
2022.96	0.00472104
2032.6	0.00363722
2042.25	0.00505836
2051.89	0.00509975
2061.53	0.00289755
2071.17	0.00335818
2080.82	0.00351714
2090.46	0.00282522
2100.1	0.00256516
2109.74	0.00296994
2119.39	0.00119402
2129.03	7.68925e-06
2138.67	0.000984167
2148.31	-0.000406006
2157.95	9.86061e-05
2167.6	0.003179
2177.24	0.00343211
2186.88	0.00405853
2196.52	0.00499921
2206.17	0.00401805
2215.81	0.00497816
2225.45	0.00529865
2235.09	0.00639964
2244.74	0.00629511
2254.38	0.0065217
2264.02	0.00658969
2273.66	0.00679532
2283.3	0.00799385
2292.95	0.00694484
2302.59	0.00673521
2312.23	0.00725934
2321.87	0.00825034
2331.52	0.00766746
2341.16	0.00753918
2350.8	0.00709144
2360.44	0.00809591
2370.09	0.00740941
2379.73	0.00601631
2389.37	0.00621143
2399.01	0.00659976
2408.66	0.00699195
2418.3	0.0062751
2427.94	0.00701967
2437.58	0.00636341
2447.22	0.00676185
2456.87	0.00697498
2466.51	0.00721238
2476.15	0.00633179
2485.79	0.00628876
2495.44	0.0068275
2505.08	0.0070598
2514.72	0.00706643
2524.36	0.00751419
2534.01	0.00731348
2543.65	0.00720463
2553.29	0.00742237
2562.93	0.00733012
2572.57	0.00743372
2582.22	0.0077418
2591.86	0.00749679
2601.5	0.00793476
2611.14	0.00764629
2620.79	0.00734551
2630.43	0.00804239
2640.07	0.00756579
2649.71	0.00753837
2659.36	0.00712525
2669	0.00701602
2678.64	0.00749721
2688.28	0.00696035
2697.93	0.0073091
2707.57	0.00702093
2717.21	0.00728062
2726.85	0.00718455
2736.49	0.00738576
2746.14	0.00776314
2755.78	0.00764217
2765.42	0.00748697
2775.06	0.00755268
2784.71	0.00785462
2794.35	0.00787744
2803.99	0.00790537
2813.63	0.00842237
2823.28	0.007983
2832.92	0.0087892
2842.56	0.00927368
2852.2	0.00940627
2861.84	0.00909367
2871.49	0.00883786
2881.13	0.00931766
2890.77	0.00974832
2900.41	0.00947182
2910.06	0.0102811
2919.7	0.0114442
2929.34	0.0104144
2938.98	0.00946091
2948.62	0.00960584
2958.27	0.0105721
2967.91	0.00964013
2977.55	0.00943649
2987.2	0.00840615
2996.84	0.00926217
3006.48	0.00911169
3016.12	0.00855122
3025.76	0.00891181
3035.41	0.00910133
3045.05	0.00882752
3054.69	0.00911808
3064.33	0.00927466
3073.98	0.00967867
3083.62	0.00960848
3093.26	0.00955398
3102.9	0.00997792
3112.55	0.00996217
3122.19	0.00946018
3131.83	0.0103087
3141.47	0.010629
3151.11	0.0100975
3160.76	0.0102557
3170.4	0.0101744
3180.04	0.0110497
3189.68	0.0104082
3199.33	0.0107544
3208.97	0.0115648
3218.61	0.0109746
3228.25	0.0103082
3237.9	0.0104727
3247.54	0.0112208
3257.18	0.0112784
3266.82	0.010232
3276.47	0.0111438
3286.11	0.0110774
3295.75	0.0110197
3305.39	0.011206
3315.03	0.0114594
3324.68	0.01083
3334.32	0.0105145
3343.96	0.0104909
3353.6	0.011357
3363.25	0.0116051
3372.89	0.0116984
3382.53	0.0104537
3392.17	0.0110882
3401.82	0.0111347
3411.46	0.0105568
3421.1	0.00959329
3430.74	0.0101346
3440.39	0.00971587
3450.03	0.0107328
3459.67	0.00995056
3469.31	0.00971865
3478.95	0.00987143
3488.6	0.00928157
3498.24	0.0104115
3507.88	0.00931124
3517.52	0.00934645
3527.17	0.00974122
3536.81	0.00898024
3546.45	0.00924917
3556.09	0.0095816
3565.74	0.00918537
3575.38	0.00912143
3585.02	0.00858538
3594.66	0.00810554
3604.3	0.00788133
3613.95	0.00831286
3623.59	0.00829364
3633.23	0.0077648
3642.87	0.00750341
3652.52	0.00746223
3662.16	0.00618724
3671.8	0.00878097
3681.44	0.00860203
3691.09	0.00802659
3700.73	0.00675484
3710.37	0.0076727
3720.01	0.00572269
3729.66	0.00685368
3739.3	0.00725206
3748.94	0.00779876
3758.58	0.00643429
3768.22	0.00697146
3777.87	0.00557277
3787.51	0.00622441
3797.15	0.00558405
3806.79	0.00733761
3816.44	0.0073191
3826.08	0.00581754
3835.72	0.00688434
3845.36	0.00617306
3855.01	0.00687214
3864.65	0.00676397
3874.29	0.00580106
3883.93	0.00646982
3893.57	0.00644767
3903.22	0.00584476
3912.86	0.0059811
3922.5	0.00514411
3932.14	0.00580832
3941.79	0.00477002
3951.43	0.00496104
3961.07	0.0047719
3970.71	0.00532993
3980.36	0.00482119
3990	0.00528275
3999.64	0.00548721
