Measurement: Infrared, Infrared Data Processed
Mineral: Dioptase
Rruff sample: R040028
Ideal chemistry: Cu^2+^SiO_3_H_2_O
Locality: Tantara mine, Democratic Republic of the Congo
Source: University of Arizona Mineral Museum
Description: Bluish green coarsely crystallized fragment
Measured chemistry: Cu_1.00_Si_1.00_O_3_Â·H_2_O; H_2_O estimated by difference
x	intensity
399.193	0
408.835	0.221675
418.477	0.110657
428.12	0.110556
437.762	0.167123
447.404	0.237286
457.047	0.24904
466.689	0.165498
476.331	0.179106
485.974	0.191197
495.616	0.230299
505.258	0.284108
514.901	0.275126
524.543	0.187186
534.185	0.131712
543.828	0.126909
553.47	0.115834
563.112	0.152815
572.755	0.197216
582.397	0.121191
592.039	0.0659665
601.682	0.0487008
611.324	0.0568999
620.966	0.0472404
630.609	0.0406467
640.251	0.0389941
649.893	0.0394411
659.536	0.0406735
669.178	0.0452191
678.82	0.0524744
688.463	0.0469923
698.105	0.0514385
707.747	0.0612164
717.39	0.0738895
727.032	0.0842539
736.674	0.0888485
746.317	0.0962528
755.959	0.120705
765.601	0.174694
775.244	0.221799
784.886	0.165882
794.528	0.0934337
804.171	0.065883
813.813	0.0638994
823.455	0.0680276
833.098	0.0750206
842.74	0.0834904
852.382	0.0953988
862.025	0.118614
871.667	0.163147
881.309	0.233122
890.952	0.228415
900.594	0.226034
910.236	0.294448
919.879	0.37785
929.521	0.437653
939.163	0.387994
948.806	0.402139
958.448	0.363056
968.09	0.283311
977.733	0.237689
987.375	0.284997
997.017	0.306132
1006.66	0.225937
1016.3	0.165297
1025.94	0.128459
1035.59	0.0964838
1045.23	0.0661711
1054.87	0.0446517
1064.51	0.033902
1074.16	0.0269529
1083.8	0.023112
1093.44	0.0211155
1103.08	0.0192526
1112.72	0.0178264
1122.37	0.0172453
1132.01	0.0163823
1141.65	0.0153704
1151.3	0.0140953
1160.94	0.012975
1170.58	0.0122884
1180.22	0.0115971
1189.86	0.0107615
1199.51	0.00981654
1209.15	0.00930189
1218.79	0.00898558
1228.43	0.00942893
1238.08	0.00855958
1247.72	0.00810373
1257.36	0.0079935
1267	0.00869629
1276.64	0.00851271
1286.29	0.00890463
1295.93	0.0115358
1305.57	0.00996004
1315.21	0.00979539
1324.86	0.00974989
1334.5	0.010482
1344.14	0.0106863
1353.78	0.0108139
1363.43	0.0108495
1373.07	0.0112252
1382.71	0.0113978
1392.35	0.0116051
1401.99	0.0116607
1411.64	0.0118306
1421.28	0.01164
1430.92	0.011282
1440.57	0.0112189
1450.21	0.0111933
1459.85	0.0112982
1469.49	0.0115347
1479.13	0.0116442
1488.78	0.0118904
1498.42	0.0124635
1508.06	0.0127449
1517.7	0.0133712
1527.35	0.0140168
1536.99	0.0150468
1546.63	0.0161897
1556.27	0.0173343
1565.91	0.0185841
1575.56	0.0195872
1585.2	0.0199475
1594.84	0.0201182
1604.48	0.0198339
1614.13	0.0187345
1623.77	0.0180955
1633.41	0.0173537
1643.05	0.0168497
1652.7	0.0161127
1662.34	0.0154695
1671.98	0.0152209
1681.62	0.0153804
1691.27	0.0136136
1700.91	0.0125956
1710.55	0.0110621
1720.19	0.00980257
1729.84	0.00878844
1739.48	0.00853985
1749.12	0.0087478
1758.76	0.00946232
1768.4	0.00871847
1778.05	0.00869968
1787.69	0.00906171
1797.33	0.0087291
1806.97	0.00867627
1816.62	0.00795202
1826.26	0.00812162
1835.9	0.00814857
1845.54	0.00793274
1855.18	0.00841967
1864.83	0.00800382
1874.47	0.00741129
1884.11	0.00785529
1893.75	0.00728138
1903.4	0.00720005
1913.04	0.00660674
1922.68	0.00723944
1932.32	0.00627943
1941.97	0.00611299
1951.61	0.0058368
1961.25	0.00399193
1970.89	0.00279331
1980.54	0.00274554
1990.18	0.00451759
1999.82	0.00415769
2009.46	0.00264704
2019.11	0.00466892
2028.75	0.00245838
2038.39	0.00383435
2048.03	0.00727589
2057.67	0.00767282
2067.32	0.00793686
2076.96	0.00964817
2086.6	0.0109974
2096.24	0.0105056
2105.89	0.0127144
2115.53	0.0109333
2125.17	0.010682
2134.81	0.00892271
2144.45	0.0101723
2154.1	0.00853241
2163.74	0.0119193
2173.38	0.0112123
2183.02	0.0120858
2192.67	0.0111076
2202.31	0.012139
2211.95	0.0109059
2221.59	0.0128277
2231.24	0.0118749
2240.88	0.0122107
2250.52	0.013781
2260.16	0.011721
2269.8	0.012907
2279.45	0.0147827
2289.09	0.0143099
2298.73	0.0141182
2308.38	0.0139282
2318.02	0.0150706
2327.66	0.014011
2337.3	0.0139488
2346.94	0.0135741
2356.59	0.0141476
2366.23	0.0131682
2375.87	0.0139355
2385.51	0.0141685
2395.16	0.0142993
2404.8	0.0136671
2414.44	0.0151564
2424.08	0.0149114
2433.72	0.0141674
2443.37	0.0151623
2453.01	0.0154027
2462.65	0.013815
2472.29	0.0145421
2481.94	0.0150192
2491.58	0.0154532
2501.22	0.0150281
2510.86	0.0143298
2520.51	0.0144785
2530.15	0.0158695
2539.79	0.0147078
2549.43	0.0162536
2559.07	0.0154275
2568.72	0.0155359
2578.36	0.0155747
2588	0.0160293
2597.64	0.0173782
2607.29	0.017261
2616.93	0.0179458
2626.57	0.0181939
2636.21	0.0180966
2645.86	0.0185116
2655.5	0.0181455
2665.14	0.0182125
2674.78	0.0183275
2684.43	0.0182255
2694.07	0.0184205
2703.71	0.0178968
2713.35	0.0183921
2722.99	0.0191093
2732.64	0.019632
2742.28	0.0211858
2751.92	0.0211277
2761.56	0.0209846
2771.21	0.0213593
2780.85	0.0218282
2790.49	0.0231667
2800.13	0.0234388
2809.78	0.0238099
2819.42	0.0233249
2829.06	0.0244195
2838.7	0.0243088
2848.34	0.0237144
2857.99	0.0247431
2867.63	0.0260262
2877.27	0.0269701
2886.91	0.0271787
2896.56	0.0277782
2906.2	0.0275133
2915.84	0.0280216
2925.48	0.0280784
2935.13	0.0290149
2944.77	0.0307971
2954.41	0.0309941
2964.05	0.0332916
2973.7	0.0350614
2983.34	0.036366
2992.98	0.0376221
3002.62	0.0400545
3012.26	0.0399021
3021.91	0.0414054
3031.55	0.0427711
3041.19	0.0440113
3050.83	0.0451856
3060.48	0.0468469
3070.12	0.0486885
3079.76	0.0509737
3089.4	0.0525596
3099.05	0.0552416
3108.69	0.0553359
3118.33	0.058176
3127.97	0.059898
3137.61	0.0620824
3147.26	0.0631977
3156.9	0.0656801
3166.54	0.0672883
3176.18	0.0709346
3185.83	0.0726609
3195.47	0.0751236
3205.11	0.0784718
3214.75	0.0808856
3224.4	0.0791058
3234.04	0.0785242
3243.68	0.0782653
3253.32	0.080318
3262.97	0.0778249
3272.61	0.078685
3282.25	0.0776113
3291.89	0.0789925
3301.53	0.0808708
3311.18	0.0862362
3320.82	0.0971654
3330.46	0.112568
3340.1	0.138765
3349.75	0.175754
3359.39	0.20515
3369.03	0.196491
3378.67	0.167573
3388.32	0.139818
3397.96	0.112155
3407.6	0.091758
3417.24	0.0753866
3426.89	0.0646469
3436.53	0.0566957
3446.17	0.0534798
3455.81	0.0489659
3465.45	0.0460865
3475.1	0.0419329
3484.74	0.0405697
3494.38	0.0399786
3504.02	0.0373303
3513.67	0.0343357
3523.31	0.0330088
3532.95	0.0335275
3542.59	0.0300762
3552.24	0.0285406
3561.88	0.026395
3571.52	0.0225955
3581.16	0.0229582
3590.8	0.0207233
3600.45	0.0200318
3610.09	0.0184795
3619.73	0.0191308
3629.37	0.0169663
3639.02	0.0157251
3648.66	0.0154937
3658.3	0.0187531
3667.94	0.0164019
3677.59	0.015223
3687.23	0.015715
3696.87	0.0157579
3706.51	0.0152977
3716.16	0.0152499
3725.8	0.0176451
3735.44	0.0180961
3745.08	0.0156595
3754.72	0.0182241
3764.37	0.0166755
3774.01	0.0161906
3783.65	0.0207354
3793.29	0.0181117
3802.94	0.0199368
3812.58	0.0201752
3822.22	0.0196276
3831.86	0.0189385
3841.51	0.0195001
3851.15	0.0220105
3860.79	0.017163
3870.43	0.0178877
3880.07	0.0188821
3889.72	0.0179619
3899.36	0.0202128
3909	0.0196833
3918.64	0.0188288
3928.29	0.0212341
3937.93	0.0214515
3947.57	0.0202477
3957.21	0.0233259
3966.86	0.019469
3976.5	0.0204978
3986.14	0.0218314
3995.78	0.0217527
