Measurement: Infrared, Infrared Data Processed
Mineral: Diopside
Rruff sample: R070123
Ideal chemistry: CaMgSi_2_O_6_
Locality: Yates mine, Otter Lake, Huddersfield Township, Pontiac County, Québec, Canada
Source: Michael Scott
Description: Black prismatic crystals associated with orange calcite
Measured chemistry: (Ca_0.95_Na_0.04_Mn_0.01_)_Σ=1_(Mg_0.63_Fe_0.33_Al_0.04_)_Σ=1_Si_2.00_O_6_
x	intensity
399.193	0.114459
408.835	0.103661
418.477	0.0836661
428.12	0.09054
437.762	0.105296
447.404	0.123208
457.047	0.132971
466.689	0.137318
476.331	0.133266
485.974	0.118148
495.616	0.11609
505.258	0.120692
514.901	0.110106
524.543	0.0934968
534.185	0.0795947
543.828	0.0670192
553.47	0.0528487
563.112	0.0401369
572.755	0.0281958
582.397	0.0201114
592.039	0.0178772
601.682	0.0200615
611.324	0.0266999
620.966	0.039603
630.609	0.0510225
640.251	0.0350795
649.893	0.0214914
659.536	0.0221263
669.178	0.0343238
678.82	0.0250659
688.463	0.0179328
698.105	0.0170538
707.747	0.0171171
717.39	0.0176712
727.032	0.0193807
736.674	0.0220388
746.317	0.0257608
755.959	0.0302764
765.601	0.0351512
775.244	0.041185
784.886	0.0485376
794.528	0.0565888
804.171	0.0670173
813.813	0.080618
823.455	0.0957896
833.098	0.113018
842.74	0.133659
852.382	0.149071
862.025	0.150263
871.667	0.144575
881.309	0.136056
890.952	0.128969
900.594	0.124615
910.236	0.122432
919.879	0.114966
929.521	0.0935155
939.163	0.0873153
948.806	0.104763
958.448	0.119358
968.09	0.111708
977.733	0.0879543
987.375	0.0702343
997.017	0.0572744
1006.66	0.0486258
1016.3	0.0461346
1025.94	0.0556372
1035.59	0.0726707
1045.23	0.0941949
1054.87	0.116296
1064.51	0.124824
1074.16	0.113512
1083.8	0.0905881
1093.44	0.0681269
1103.08	0.049779
1112.72	0.0333058
1122.37	0.0202672
1132.01	0.0109605
1141.65	0.00564949
1151.3	0.00325669
1160.94	0.00174925
1170.58	0.000816403
1180.22	0.00032151
1189.86	-0.000111914
1199.51	-0.000564775
1209.15	-0.000770978
1218.79	-0.000711876
1228.43	-0.000935492
1238.08	-0.00117988
1247.72	-0.00107098
1257.36	-0.00123806
1267	-0.00140651
1276.64	-0.00120805
1286.29	-0.00127584
1295.93	-0.000918721
1305.57	-0.00131581
1315.21	-0.000921898
1324.86	-0.000854426
1334.5	-0.000819728
1344.14	-0.000762684
1353.78	-0.000563136
1363.43	-0.000341359
1373.07	-4.23824e-05
1382.71	0.000143384
1392.35	0.00061963
1401.99	0.000954728
1411.64	0.00129503
1421.28	0.00163001
1430.92	0.00197635
1440.57	0.00183264
1450.21	0.00187311
1459.85	0.00205215
1469.49	0.00190674
1479.13	0.00208086
1488.78	0.00228436
1498.42	0.002455
1508.06	0.00252584
1517.7	0.0020722
1527.35	0.00193925
1536.99	0.00180143
1546.63	0.00166807
1556.27	0.00174292
1565.91	0.00146261
1575.56	0.00182179
1585.2	0.00142264
1594.84	0.00144853
1604.48	0.00134546
1614.13	0.00150692
1623.77	0.00145213
1633.41	0.00162069
1643.05	0.00146673
1652.7	0.0021574
1662.34	0.0012009
1671.98	0.00107265
1681.62	0.00088249
1691.27	0.000767325
1700.91	0.00119884
1710.55	0.000567198
1720.19	0.000649518
1729.84	0.000393337
1739.48	-2.62924e-05
1749.12	-0.000149748
1758.76	-0.00022642
1768.4	0.000339051
1778.05	0.000416709
1787.69	0.000398591
1797.33	-0.000266591
1806.97	-0.000311939
1816.62	-0.000242589
1826.26	0.000313291
1835.9	-7.93191e-06
1845.54	-0.00029647
1855.18	0.000225083
1864.83	0.000408315
1874.47	0.000125398
1884.11	0.000407839
1893.75	-0.000193133
1903.4	-0.000403832
1913.04	-9.4934e-05
1922.68	-0.00049734
1932.32	-0.00096383
1941.97	-0.000693195
1951.61	-0.000739456
1961.25	-0.000491984
1970.89	-0.00108827
1980.54	0.000774439
1990.18	0.00057776
1999.82	-3.33646e-05
2009.46	0.0013416
2019.11	0.00118856
2028.75	0.00165466
2038.39	0.0020514
2048.03	0.00112007
2057.67	0.00181103
2067.32	0.00171555
2076.96	0.00188872
2086.6	0.00103023
2096.24	0.000566043
2105.89	0.00074996
2115.53	0.000196586
2125.17	-0.00010191
2134.81	-0.00169691
2144.45	-0.0021771
2154.1	-0.00150157
2163.74	0.000831106
2173.38	0.00119539
2183.02	0.000896223
2192.67	0.00207542
2202.31	0.00181625
2211.95	0.00267318
2221.59	0.00249624
2231.24	0.00247987
2240.88	0.00312302
2250.52	0.00290191
2260.16	0.00356914
2269.8	0.00310166
2279.45	0.00399184
2289.09	0.00434038
2298.73	0.00371288
2308.38	0.00388257
2318.02	0.0042722
2327.66	0.00415418
2337.3	0.00430099
2346.94	0.00338261
2356.59	0.00414596
2366.23	0.00400439
2375.87	0.00315273
2385.51	0.00269817
2395.16	0.0024786
2404.8	0.00313378
2414.44	0.00279978
2424.08	0.00312341
2433.72	0.00318744
2443.37	0.00325408
2453.01	0.00371095
2462.65	0.0031171
2472.29	0.0033616
2481.94	0.00361094
2491.58	0.0030858
2501.22	0.00326025
2510.86	0.00316003
2520.51	0.00342332
2530.15	0.00357242
2539.79	0.00326782
2549.43	0.00347461
2559.07	0.00368726
2568.72	0.00374029
2578.36	0.00375306
2588	0.00358861
2597.64	0.0036811
2607.29	0.00376127
2616.93	0.00359148
2626.57	0.00365896
2636.21	0.0036152
2645.86	0.00394703
2655.5	0.00376183
2665.14	0.00331643
2674.78	0.00348152
2684.43	0.00327519
2694.07	0.00322307
2703.71	0.00322287
2713.35	0.00306862
2722.99	0.00336227
2732.64	0.00314115
2742.28	0.00336064
2751.92	0.00310442
2761.56	0.00320826
2771.21	0.00331746
2780.85	0.00292645
2790.49	0.00315604
2800.13	0.003128
2809.78	0.0033761
2819.42	0.00331166
2829.06	0.00350181
2838.7	0.00376566
2848.34	0.00373986
2857.99	0.00361551
2867.63	0.00362089
2877.27	0.00349715
2886.91	0.00315606
2896.56	0.00406649
2906.2	0.00421406
2915.84	0.00371578
2925.48	0.00426895
2935.13	0.00387574
2944.77	0.00350062
2954.41	0.00388215
2964.05	0.00379379
2973.7	0.00345304
2983.34	0.00299982
2992.98	0.00342581
3002.62	0.00302808
3012.26	0.00236106
3021.91	0.0031773
3031.55	0.00338757
3041.19	0.00324575
3050.83	0.00318131
3060.48	0.00374541
3070.12	0.0029299
3079.76	0.00284353
3089.4	0.00334722
3099.05	0.00319077
3108.69	0.0041866
3118.33	0.00348013
3127.97	0.00392878
3137.61	0.00404876
3147.26	0.00364065
3156.9	0.00366728
3166.54	0.00356682
3176.18	0.00396228
3185.83	0.00358008
3195.47	0.00368524
3205.11	0.00376414
3214.75	0.00375533
3224.4	0.00389328
3234.04	0.00447095
3243.68	0.00358628
3253.32	0.0038912
3262.97	0.00333071
3272.61	0.00341006
3282.25	0.00380973
3291.89	0.00355186
3301.53	0.00328063
3311.18	0.00397099
3320.82	0.00375491
3330.46	0.0040384
3340.1	0.00374699
3349.75	0.0035706
3359.39	0.00404152
3369.03	0.00369066
3378.67	0.00364708
3388.32	0.00345476
3397.96	0.00339661
3407.6	0.00399478
3417.24	0.00348479
3426.89	0.00354102
3436.53	0.00363117
3446.17	0.00355353
3455.81	0.00310485
3465.45	0.00349643
3475.1	0.00369263
3484.74	0.00235765
3494.38	0.00380171
3504.02	0.00333595
3513.67	0.00323366
3523.31	0.00341833
3532.95	0.00287797
3542.59	0.00350966
3552.24	0.00320127
3561.88	0.00277843
3571.52	0.00242994
3581.16	0.00347372
3590.8	0.00224184
3600.45	0.00217434
3610.09	0.00290174
3619.73	0.00274844
3629.37	0.00254637
3639.02	0.0020265
3648.66	0.00249975
3658.3	0.00262274
3667.94	0.00228283
3677.59	0.00272644
3687.23	0.00277368
3696.87	0.00124758
3706.51	0.00179019
3716.16	0.00149172
3725.8	0.0013946
3735.44	0.00256947
3745.08	0.0032553
3754.72	0.0021325
3764.37	0.00219476
3774.01	0.00187331
3783.65	0.00175393
3793.29	0.00287957
3802.94	0.00278814
3812.58	0.00220144
3822.22	0.00225986
3831.86	0.00237068
3841.51	0.00239446
3851.15	0.00241016
3860.79	0.00159661
3870.43	0.00213697
3880.07	0.00170479
3889.72	0.00217171
3899.36	0.00114025
3909	0.00180471
3918.64	0.00133636
3928.29	0.00159132
3937.93	0.00203305
3947.57	0.000693121
3957.21	0.00103589
3966.86	0.00141643
3976.5	0.00133496
3986.14	0.0022764
3995.78	0.00171261
