Measurement: Infrared, Infrared Data Processed
Mineral: Dolomite
Rruff sample: R040030
Ideal chemistry: CaMg(CO_3_)_2_
Locality: Austria
Source: University of Arizona Mineral Museum
Description: Group of colorless tabular crystals
Measured chemistry: (Ca_0.99_Mg_0.01_)_Î£=1_Mg_1.00_(CO_3_)_2_ ; trace amounts of Mn; CO_2_ estimated by difference
x	intensity
399.193	0
408.835	0.0703745
418.477	0.0562654
428.12	0.0425818
437.762	0.0290098
447.404	0.0237784
457.047	0.0197263
466.689	0.0164802
476.331	0.0145685
485.974	0.0147166
495.616	0.0144646
505.258	0.013571
514.901	0.012506
524.543	0.010811
534.185	0.00966139
543.828	0.0093397
553.47	0.00896698
563.112	0.00832497
572.755	0.00840694
582.397	0.00827732
592.039	0.00906943
601.682	0.0104742
611.324	0.0095205
620.966	0.00819447
630.609	0.00791117
640.251	0.0079764
649.893	0.00786241
659.536	0.00855685
669.178	0.0128937
678.82	0.010652
688.463	0.00900614
698.105	0.0101335
707.747	0.0119654
717.39	0.0196962
727.032	0.0798928
736.674	0.0176314
746.317	0.00771974
755.959	0.00662264
765.601	0.00707816
775.244	0.00740588
784.886	0.0081016
794.528	0.00866597
804.171	0.00963287
813.813	0.0105814
823.455	0.012189
833.098	0.0142981
842.74	0.0191272
852.382	0.042491
862.025	0.0598729
871.667	0.159526
881.309	0.185238
890.952	0.0621096
900.594	0.0135398
910.236	0.0123001
919.879	0.0122663
929.521	0.0127533
939.163	0.0131643
948.806	0.0140359
958.448	0.0145113
968.09	0.0153032
977.733	0.0161154
987.375	0.0171879
997.017	0.0183938
1006.66	0.0195977
1016.3	0.0204802
1025.94	0.0214743
1035.59	0.0223918
1045.23	0.0236885
1054.87	0.0251822
1064.51	0.0272282
1074.16	0.0297878
1083.8	0.0327951
1093.44	0.0362945
1103.08	0.0421017
1112.72	0.0515022
1122.37	0.0597101
1132.01	0.0600113
1141.65	0.0666323
1151.3	0.0710538
1160.94	0.0711457
1170.58	0.0672716
1180.22	0.058634
1189.86	0.0541739
1199.51	0.0533929
1209.15	0.0558114
1218.79	0.0602647
1228.43	0.0645522
1238.08	0.0679557
1247.72	0.072485
1257.36	0.0777052
1267	0.0841693
1276.64	0.0916798
1286.29	0.101036
1295.93	0.110894
1305.57	0.120672
1315.21	0.132965
1324.86	0.146968
1334.5	0.163458
1344.14	0.180808
1353.78	0.202469
1363.43	0.228326
1373.07	0.256286
1382.71	0.285952
1392.35	0.319823
1401.99	0.359292
1411.64	0.382997
1421.28	0.399833
1430.92	0.395118
1440.57	0.368066
1450.21	0.338695
1459.85	0.306256
1469.49	0.272403
1479.13	0.24112
1488.78	0.213015
1498.42	0.186977
1508.06	0.160253
1517.7	0.133877
1527.35	0.11027
1536.99	0.0884068
1546.63	0.0689552
1556.27	0.0512331
1565.91	0.031667
1575.56	0.0152073
1585.2	0.0108977
1594.84	0.0109141
1604.48	0.0102508
1614.13	0.00939487
1623.77	0.0084497
1633.41	0.00561365
1643.05	0.00455488
1652.7	0.00404608
1662.34	0.00308828
1671.98	0.00271373
1681.62	0.00338247
1691.27	0.00197131
1700.91	0.00188695
1710.55	0.00107073
1720.19	1.57423e-05
1729.84	-0.0012818
1739.48	-0.00121511
1749.12	-0.000168187
1758.76	0.000957348
1768.4	0.0017538
1778.05	0.00198005
1787.69	0.00232473
1797.33	0.00375977
1806.97	0.00619203
1816.62	0.00795707
1826.26	0.00618257
1835.9	0.0025164
1845.54	0.000916503
1855.18	0.000556145
1864.83	3.8277e-05
1874.47	0.000579594
1884.11	0.000400934
1893.75	0.000552797
1903.4	-8.57705e-06
1913.04	0.000568592
1922.68	0.000439832
1932.32	0.000394388
1941.97	-0.000188156
1951.61	5.50085e-05
1961.25	-0.000536745
1970.89	-0.00142271
1980.54	-0.000333825
1990.18	0.00189926
1999.82	0.000280815
2009.46	-0.00192472
2019.11	0.000615003
2028.75	-0.000945111
2038.39	0.000346868
2048.03	0.000161985
2057.67	-0.00108591
2067.32	0.00082305
2076.96	0.000312569
2086.6	0.00183644
2096.24	0.00109025
2105.89	0.00312872
2115.53	0.00143561
2125.17	0.00153526
2134.81	-0.000486683
2144.45	-0.00167439
2154.1	-0.00243838
2163.74	0.0026933
2173.38	0.000688496
2183.02	0.00140243
2192.67	0.000258998
2202.31	0.00170293
2211.95	0.000124656
2221.59	0.000866873
2231.24	0.000935775
2240.88	0.00127216
2250.52	0.00257677
2260.16	0.00159514
2269.8	0.00137887
2279.45	0.00364716
2289.09	0.00369924
2298.73	0.00331389
2308.38	0.00343845
2318.02	0.0044668
2327.66	0.00317364
2337.3	0.0034126
2346.94	0.00312373
2356.59	0.00420444
2366.23	0.00264009
2375.87	0.00250522
2385.51	0.00342787
2395.16	0.00234019
2404.8	0.00253018
2414.44	0.00369816
2424.08	0.00309513
2433.72	0.0030226
2443.37	0.00364182
2453.01	0.00380602
2462.65	0.00259072
2472.29	0.00310559
2481.94	0.0046145
2491.58	0.00402197
2501.22	0.00483997
2510.86	0.00680069
2520.51	0.00948797
2530.15	0.0105849
2539.79	0.0084386
2549.43	0.00901708
2559.07	0.00630842
2568.72	0.00502205
2578.36	0.005584
2588	0.00522782
2597.64	0.00444573
2607.29	0.00415967
2616.93	0.00523233
2626.57	0.00588898
2636.21	0.00541104
2645.86	0.00472937
2655.5	0.00346571
2665.14	0.00281631
2674.78	0.00290797
2684.43	0.00216558
2694.07	0.00236655
2703.71	0.00185538
2713.35	0.0016297
2722.99	0.00217907
2732.64	0.00156313
2742.28	0.00221325
2751.92	0.00211891
2761.56	0.00186512
2771.21	0.00188588
2780.85	0.00124284
2790.49	0.00123558
2800.13	0.00158381
2809.78	0.00104414
2819.42	0.00113954
2829.06	0.000526318
2838.7	-0.000343116
2848.34	0.000207323
2857.99	0.00133685
2867.63	0.00269078
2877.27	0.00342854
2886.91	0.00413861
2896.56	0.00435062
2906.2	0.0038523
2915.84	0.00216073
2925.48	0.00173489
2935.13	0.000780747
2944.77	0.00234491
2954.41	0.000827801
2964.05	0.0023951
2973.7	0.00263203
2983.34	0.00434527
2992.98	0.00567999
3002.62	0.00654073
3012.26	0.00579338
3021.91	0.00595515
3031.55	0.00711719
3041.19	0.00472935
3050.83	0.00448649
3060.48	0.00582234
3070.12	0.00583721
3079.76	0.00598059
3089.4	0.0070795
3099.05	0.00794326
3108.69	0.00832777
3118.33	0.00764352
3127.97	0.00925288
3137.61	0.00930066
3147.26	0.00991094
3156.9	0.00933403
3166.54	0.0112207
3176.18	0.0108524
3185.83	0.0102541
3195.47	0.0103144
3205.11	0.0111163
3214.75	0.0133796
3224.4	0.0114065
3234.04	0.0113442
3243.68	0.0121419
3253.32	0.0130969
3262.97	0.0128071
3272.61	0.0126386
3282.25	0.0124927
3291.89	0.0128441
3301.53	0.0116305
3311.18	0.0130682
3320.82	0.0131952
3330.46	0.0137029
3340.1	0.0137542
3349.75	0.0162859
3359.39	0.0144611
3369.03	0.0154332
3378.67	0.0159794
3388.32	0.0201296
3397.96	0.0214229
3407.6	0.022384
3417.24	0.0205759
3426.89	0.0184333
3436.53	0.0176463
3446.17	0.0161302
3455.81	0.0161252
3465.45	0.0169031
3475.1	0.0136614
3484.74	0.0152572
3494.38	0.0178965
3504.02	0.0172033
3513.67	0.0174612
3523.31	0.0217323
3532.95	0.0233952
3542.59	0.0263558
3552.24	0.0237869
3561.88	0.023309
3571.52	0.0191418
3581.16	0.0190221
3590.8	0.0149937
3600.45	0.0142587
3610.09	0.0149523
3619.73	0.0152647
3629.37	0.0125819
3639.02	0.0124605
3648.66	0.0100139
3658.3	0.0123454
3667.94	0.0120706
3677.59	0.0149619
3687.23	0.0121135
3696.87	0.0119045
3706.51	0.0123989
3716.16	0.0116601
3725.8	0.0145113
3735.44	0.0158326
3745.08	0.0147022
3754.72	0.0129459
3764.37	0.0116722
3774.01	0.0112198
3783.65	0.0146401
3793.29	0.0113608
3802.94	0.0123301
3812.58	0.0140105
3822.22	0.014048
3831.86	0.0141417
3841.51	0.0141163
3851.15	0.0182716
3860.79	0.0141053
3870.43	0.0111105
3880.07	0.0126493
3889.72	0.0144602
3899.36	0.0148213
3909	0.01469
3918.64	0.0141062
3928.29	0.0166294
3937.93	0.0155415
3947.57	0.0149301
3957.21	0.0164582
3966.86	0.014132
3976.5	0.0161196
3986.14	0.0172413
3995.78	0.0157024
