Measurement: Infrared, Infrared Data Processed
Mineral: Dolomite
Rruff sample: R050241
Ideal chemistry: CaMg(CO_3_)_2_
Locality: Eugui quarries, Navarre, Spain
Source: Marcus Origlieri
Description: Light gray colored tabular crystals
Measured chemistry: (Ca_0.96_Mg_0.04_)_Σ=1_(Mg_0.98_Fe^2+^_0.02_)_Σ=1_(CO_3_)_2_ ; CO_2_ estimated by difference
x	intensity
50.1401	0.0281068
52.0686	0.0197903
53.9971	0.0166472
55.9255	0.010573
57.854	0.0115717
59.7825	0.0169213
61.7109	0.0157247
63.6394	0.0160234
65.5679	0.0141271
67.4963	0.0151562
69.4248	0.0174281
71.3533	0.0171774
73.2817	0.0162319
75.2102	0.016724
77.1387	0.0181958
79.0671	0.0203505
80.9956	0.022057
82.9241	0.0226226
84.8525	0.0221315
86.781	0.0220507
88.7095	0.0233493
90.6379	0.0249559
92.5664	0.0250977
94.4948	0.0256157
96.4233	0.026197
98.3518	0.0264842
100.28	0.0274155
102.209	0.0284707
104.137	0.0284714
106.066	0.0288504
107.994	0.0290288
109.923	0.0280287
111.851	0.0283527
113.779	0.0300837
115.708	0.0309033
117.636	0.0324177
119.565	0.0337099
121.493	0.0343182
123.422	0.0350507
125.35	0.0363526
127.279	0.0374251
129.207	0.0383824
131.136	0.0396763
133.064	0.0406125
134.993	0.0416934
136.921	0.0430584
138.85	0.0442766
140.778	0.0457442
142.707	0.0463822
144.635	0.0467141
146.563	0.0475777
148.492	0.0490102
150.42	0.0490404
152.349	0.0477181
154.277	0.04706
156.206	0.0465446
158.134	0.0448599
160.063	0.0421027
161.991	0.0389154
163.92	0.0363535
165.848	0.0338931
167.777	0.0308116
169.705	0.0278978
171.633	0.0256074
173.562	0.0255491
175.49	0.0272584
177.419	0.0283641
179.347	0.0282404
181.276	0.0275595
183.204	0.0254772
185.133	0.0230716
187.061	0.0208998
188.99	0.0192901
190.918	0.0190167
192.847	0.0192893
194.775	0.019782
196.704	0.0205999
198.632	0.0217365
200.56	0.0231641
202.489	0.0247907
204.417	0.0260737
206.346	0.0271593
208.274	0.0282444
210.203	0.0289812
212.131	0.0296857
214.06	0.0307516
215.988	0.0321265
217.917	0.0333256
219.845	0.0346613
221.774	0.0363333
223.702	0.0377939
225.631	0.0389055
227.559	0.0398391
229.488	0.0405843
231.416	0.0416682
233.344	0.0430647
235.273	0.0443986
237.201	0.0456847
239.13	0.0473665
241.058	0.0489542
242.987	0.0501424
244.915	0.0515581
246.844	0.0533671
248.772	0.055233
250.701	0.0569596
252.629	0.0592298
254.558	0.0617476
256.486	0.0636612
258.414	0.0648852
260.343	0.0649824
262.271	0.0633848
264.2	0.0598478
266.128	0.054587
268.057	0.0485317
269.985	0.0439997
271.914	0.0417862
273.842	0.0412341
275.771	0.0421129
277.699	0.0441756
279.628	0.0465103
281.556	0.0489375
283.485	0.0515103
285.413	0.0528449
287.341	0.0544154
289.27	0.0568278
291.198	0.0589706
293.127	0.0606522
295.055	0.0620789
296.984	0.0631718
298.912	0.0647375
300.841	0.0667258
302.769	0.0690027
304.698	0.0706976
306.626	0.0719374
308.555	0.0736563
310.483	0.0755544
312.411	0.0771967
314.34	0.0785169
316.269	0.079624
318.197	0.0801639
320.125	0.0793598
322.054	0.0778152
323.982	0.0759385
325.911	0.0743262
327.839	0.0743888
329.768	0.0754942
331.696	0.0770953
333.625	0.0793539
335.553	0.0817594
337.482	0.0837683
339.41	0.0856187
341.339	0.087401
343.267	0.0886993
345.195	0.0893626
347.124	0.0898283
349.052	0.0907329
350.981	0.0916087
352.909	0.0922404
354.838	0.0924849
356.766	0.0925198
358.695	0.0920874
360.623	0.0912236
362.552	0.0906877
364.48	0.090192
366.409	0.08877
368.337	0.0873346
370.265	0.0862082
372.194	0.084961
374.122	0.0832954
376.051	0.0815642
377.979	0.0798151
379.908	0.0779003
381.836	0.076105
383.765	0.0742074
385.693	0.0723801
387.622	0.0705268
389.55	0.0686729
391.479	0.066736
393.407	0.0647589
395.336	0.0630072
397.264	0.0616537
399.192	0.060314
401.121	0.058778
403.049	0.0573873
404.978	0.0560213
406.906	0.054678
408.835	0.0534273
410.763	0.0521092
412.692	0.050667
414.62	0.0497601
416.549	0.0489996
418.477	0.0479577
420.406	0.0467839
422.334	0.0451771
424.262	0.0435405
426.191	0.0421735
428.12	0.0409287
430.048	0.039991
431.976	0.0388865
433.905	0.0375642
435.833	0.0365654
437.762	0.0356435
439.69	0.0348627
441.619	0.034464
443.547	0.0338256
445.476	0.0331876
447.404	0.0327094
449.333	0.0322595
451.261	0.031898
453.19	0.0318114
455.118	0.0317765
457.046	0.0320503
458.975	0.0319209
460.903	0.0316218
462.832	0.0315228
464.76	0.0315137
466.689	0.0314319
468.617	0.0311963
470.546	0.0303706
472.474	0.0300381
474.403	0.0306291
476.331	0.0308524
478.26	0.0304961
480.188	0.0302487
482.116	0.0302931
484.045	0.0302428
485.974	0.030008
487.902	0.03004
489.83	0.0302882
491.759	0.0308445
493.687	0.0309318
495.616	0.0305339
497.544	0.0306272
499.473	0.0312325
501.401	0.0314395
503.33	0.0314286
505.258	0.0313104
507.187	0.0309806
509.115	0.0307979
511.043	0.0309184
512.972	0.0306349
514.9	0.0302776
516.829	0.0301102
518.757	0.0304655
520.686	0.0304502
522.614	0.0301988
524.543	0.0304104
526.471	0.0306275
528.4	0.0303851
530.328	0.0304091
532.257	0.030253
534.185	0.0297871
536.114	0.0295902
538.042	0.0298848
539.971	0.0300409
541.899	0.0299534
543.827	0.0299577
545.756	0.0301342
547.684	0.0301427
549.613	0.0303059
551.541	0.0304665
553.47	0.0306169
555.398	0.0305861
557.327	0.0306154
559.255	0.0309045
561.184	0.0308762
563.112	0.0304843
565.041	0.030353
566.969	0.0304404
568.898	0.0308251
570.826	0.0310004
572.755	0.0310387
574.683	0.031268
576.611	0.0314776
578.54	0.0315127
580.468	0.0315291
582.397	0.0316604
584.325	0.0317156
586.254	0.0315201
588.182	0.0313405
590.111	0.030994
592.039	0.0304436
593.968	0.030068
595.896	0.0300487
597.824	0.030128
599.753	0.0295484
601.682	0.0286767
603.61	0.0279923
605.538	0.0275564
607.467	0.0278259
609.395	0.027969
611.324	0.0280822
613.252	0.0289462
615.181	0.0296255
617.109	0.0288554
619.038	0.0283398
620.966	0.0291618
622.894	0.030001
624.823	0.0309867
626.751	0.0325139
628.68	0.0344856
630.608	0.0363543
632.537	0.0372679
634.465	0.0375412
636.394	0.0378694
638.322	0.038238
640.251	0.0386852
642.179	0.038906
644.108	0.0390341
646.036	0.0397043
647.965	0.0399484
649.893	0.0397602
651.822	0.0398354
653.75	0.0402119
655.678	0.0403565
657.607	0.0404941
659.535	0.0405559
661.464	0.0405827
663.392	0.040902
665.321	0.0415024
667.249	0.0422459
669.178	0.0424119
671.106	0.0424306
673.035	0.0425874
674.963	0.0428492
676.892	0.0431855
678.82	0.0435343
680.749	0.0436093
682.677	0.0437663
684.606	0.0439377
686.534	0.0431501
688.462	0.0435163
690.391	0.0451124
692.319	0.0458721
694.248	0.0455779
696.176	0.0453026
698.105	0.0454601
700.033	0.0465765
