Measurement: Infrared, Infrared Data Processed
Mineral: Dolomite
Rruff sample: R050357
Ideal chemistry: CaMg(CO_3_)_2_
Locality: Black Rock, Lawrence County, Arkansas, USA
Source: California Institute of Technology
Description: Aggregate of pale pink curved saddle-shaped crystals
Measured chemistry: Ca_1.00_(Mg_0.98_Fe^2+^_0.02_)_Î£=1_(CO_3_)_2_ ; CO_2_ estimated by difference
x	intensity
399.193	0.0964122
408.835	0.0780624
418.477	0.0577119
428.12	0.0434731
437.762	0.0335301
447.404	0.0274169
457.047	0.0209667
466.689	0.0186736
476.331	0.0164055
485.974	0.0156724
495.616	0.0159973
505.258	0.0149211
514.901	0.0134147
524.543	0.0125467
534.185	0.0125891
543.828	0.0113657
553.47	0.0109696
563.112	0.0105759
572.755	0.00914462
582.397	0.00966886
592.039	0.00954035
601.682	0.00923194
611.324	0.00916022
620.966	0.00887122
630.609	0.00908402
640.251	0.0100532
649.893	0.0102386
659.536	0.010381
669.178	0.010703
678.82	0.0109532
688.463	0.0121897
698.105	0.0129137
707.747	0.0166824
717.39	0.0259605
727.032	0.0946003
736.674	0.0208315
746.317	0.0107628
755.959	0.00950693
765.601	0.00912162
775.244	0.0099439
784.886	0.010574
794.528	0.0109893
804.171	0.011564
813.813	0.0131246
823.455	0.014562
833.098	0.0168709
842.74	0.0223393
852.382	0.047568
862.025	0.0690718
871.667	0.20005
881.309	0.21731
890.952	0.0682836
900.594	0.0163538
910.236	0.0146898
919.879	0.0147532
929.521	0.0148564
939.163	0.0156712
948.806	0.016459
958.448	0.0171814
968.09	0.0183929
977.733	0.0194307
987.375	0.0207127
997.017	0.0214908
1006.66	0.0230826
1016.3	0.0241773
1025.94	0.0256694
1035.59	0.0267653
1045.23	0.0279087
1054.87	0.0283891
1064.51	0.0297811
1074.16	0.031576
1083.8	0.0332492
1093.44	0.0351134
1103.08	0.0365724
1112.72	0.0370322
1122.37	0.0387129
1132.01	0.0402123
1141.65	0.0428466
1151.3	0.0449456
1160.94	0.0478205
1170.58	0.0511912
1180.22	0.0551779
1189.86	0.0588289
1199.51	0.0616478
1209.15	0.0661218
1218.79	0.0719314
1228.43	0.0778392
1238.08	0.0830116
1247.72	0.0895271
1257.36	0.0963951
1267	0.104773
1276.64	0.115409
1286.29	0.125645
1295.93	0.13749
1305.57	0.15055
1315.21	0.165697
1324.86	0.184338
1334.5	0.206059
1344.14	0.229701
1353.78	0.258729
1363.43	0.294426
1373.07	0.334516
1382.71	0.378353
1392.35	0.430053
1401.99	0.486476
1411.64	0.520263
1421.28	0.537829
1430.92	0.506758
1440.57	0.454412
1450.21	0.408663
1459.85	0.363897
1469.49	0.320157
1479.13	0.282739
1488.78	0.248937
1498.42	0.216668
1508.06	0.186198
1517.7	0.155557
1527.35	0.128445
1536.99	0.103346
1546.63	0.0801704
1556.27	0.0585498
1565.91	0.034965
1575.56	0.0163943
1585.2	0.010931
1594.84	0.0110594
1604.48	0.0102705
1614.13	0.00848432
1623.77	0.00622935
1633.41	0.00594279
1643.05	0.00575711
1652.7	0.00601853
1662.34	0.00442916
1671.98	0.00407162
1681.62	0.00396131
1691.27	0.00332026
1700.91	0.00319071
1710.55	0.00198284
1720.19	0.00197202
1729.84	0.00170187
1739.48	0.000874554
1749.12	0.000383936
1758.76	0.000825735
1768.4	0.00191197
1778.05	0.00158175
1787.69	0.00385784
1797.33	0.00585595
1806.97	0.00852901
1816.62	0.0115419
1826.26	0.00925287
1835.9	0.00343985
1845.54	0.00184862
1855.18	0.00168622
1864.83	0.00141504
1874.47	0.000750309
1884.11	0.00129322
1893.75	0.0014412
1903.4	0.00115999
1913.04	0.00134838
1922.68	0.000921636
1932.32	0.00136838
1941.97	0.000567007
1951.61	0.00164032
1961.25	-0.00216628
1970.89	-0.000445059
1980.54	0.00496973
1990.18	0.000251608
1999.82	0.00215168
2009.46	0.000538478
2019.11	-0.000657258
2028.75	0.00181588
2038.39	-0.00066367
2048.03	0.00400866
2057.67	0.00450557
2067.32	0.0024477
2076.96	0.00235727
2086.6	0.00323872
2096.24	0.00458499
2105.89	0.00327923
2115.53	0.00307816
2125.17	0.00278596
2134.81	-0.00127532
2144.45	-0.00255325
2154.1	-0.00405672
2163.74	0.000551054
2173.38	0.00345473
2183.02	0.00298566
2192.67	0.00197775
2202.31	0.00543867
2211.95	0.00200491
2221.59	0.00222995
2231.24	0.00401709
2240.88	0.00529215
2250.52	0.00319609
2260.16	0.00333565
2269.8	0.00636587
2279.45	0.00456708
2289.09	0.00465315
2298.73	0.00436823
2308.38	0.00482215
2318.02	0.00662021
2327.66	0.00601206
2337.3	0.00559027
2346.94	0.00532413
2356.59	0.0060764
2366.23	0.00509239
2375.87	0.00519811
2385.51	0.00385555
2395.16	0.00329967
2404.8	0.00547204
2414.44	0.00410941
2424.08	0.00472156
2433.72	0.00325557
2443.37	0.00517672
2453.01	0.00634841
2462.65	0.00510049
2472.29	0.00506342
2481.94	0.00440173
2491.58	0.00633678
2501.22	0.00843024
2510.86	0.0102738
2520.51	0.0137112
2530.15	0.0136535
2539.79	0.0142215
2549.43	0.0113156
2559.07	0.0102103
2568.72	0.00681861
2578.36	0.00748088
2588	0.00793064
2597.64	0.00422302
2607.29	0.00551099
2616.93	0.00740417
2626.57	0.00887738
2636.21	0.00670191
2645.86	0.004803
2655.5	0.00601685
2665.14	0.00486754
2674.78	0.00496116
2684.43	0.00355801
2694.07	0.00409274
2703.71	0.00346865
2713.35	0.00344143
2722.99	0.00429649
2732.64	0.00335402
2742.28	0.00363761
2751.92	0.00381778
2761.56	0.00299686
2771.21	0.00240895
2780.85	0.00366566
2790.49	0.00347167
2800.13	0.00490773
2809.78	0.00315801
2819.42	0.00219563
2829.06	0.00266721
2838.7	0.00276944
2848.34	0.00216039
2857.99	0.00168656
2867.63	0.00395086
2877.27	0.00532017
2886.91	0.00737341
2896.56	0.00782482
2906.2	0.00709899
2915.84	0.00594349
2925.48	0.00245517
2935.13	0.0024958
2944.77	0.00319322
2954.41	0.00346112
2964.05	0.00401513
2973.7	0.00585315
2983.34	0.0056108
2992.98	0.0055144
3002.62	0.00739546
3012.26	0.00718997
3021.91	0.0078863
3031.55	0.00584483
3041.19	0.00603884
3050.83	0.0071629
3060.48	0.00707065
3070.12	0.00621238
3079.76	0.00808132
3089.4	0.00790767
3099.05	0.00839249
3108.69	0.00934812
3118.33	0.0100558
3127.97	0.00924843
3137.61	0.0100631
3147.26	0.0086962
3156.9	0.012061
3166.54	0.00837976
3176.18	0.0132791
3185.83	0.011555
3195.47	0.0112385
3205.11	0.0114374
3214.75	0.0126789
3224.4	0.0140324
3234.04	0.0134429
3243.68	0.0118659
3253.32	0.0148829
3262.97	0.0115971
3272.61	0.0139883
3282.25	0.0119333
3291.89	0.0142842
3301.53	0.0134163
3311.18	0.0125457
3320.82	0.0134735
3330.46	0.0144442
3340.1	0.0158827
3349.75	0.0137569
3359.39	0.0143538
3369.03	0.0131335
3378.67	0.0139482
3388.32	0.0125698
3397.96	0.0146486
3407.6	0.0131351
3417.24	0.0129714
3426.89	0.0148556
3436.53	0.0124526
3446.17	0.0153864
3455.81	0.011828
3465.45	0.0149056
3475.1	0.0141402
3484.74	0.0144457
3494.38	0.0143581
3504.02	0.0139237
3513.67	0.0142607
3523.31	0.0128284
3532.95	0.0121753
3542.59	0.0165139
3552.24	0.0113117
3561.88	0.0125496
3571.52	0.009954
3581.16	0.00993227
3590.8	0.0121409
3600.45	0.0134123
3610.09	0.0137335
3619.73	0.0102267
3629.37	0.010879
3639.02	0.00684612
3648.66	0.00757643
3658.3	0.012975
3667.94	0.0128051
3677.59	0.0091748
3687.23	0.0107864
3696.87	0.0102475
3706.51	0.011635
3716.16	0.0075372
3725.8	0.0139328
3735.44	0.0122009
3745.08	0.0157792
3754.72	0.01104
3764.37	0.00630245
3774.01	0.00889375
3783.65	0.0131639
3793.29	0.0139453
3802.94	0.0117506
3812.58	0.0109669
3822.22	0.0172797
3831.86	0.0119199
3841.51	0.0125974
3851.15	0.012762
3860.79	0.0150873
3870.43	0.015089
3880.07	0.0143932
3889.72	0.00952049
3899.36	0.0123814
3909	0.0112489
3918.64	0.0148324
3928.29	0.0172732
3937.93	0.00922665
3947.57	0.0132951
3957.21	0.0121213
3966.86	0.0126228
3976.5	0.0121002
3986.14	0.00930309
3995.78	0.0126525
