Measurement: Infrared, Infrared Data Processed
Mineral: Dolomite
Rruff sample: R050241
Ideal chemistry: CaMg(CO_3_)_2_
Locality: Eugui quarries, Navarre, Spain
Source: Marcus Origlieri
Description: Light gray colored tabular crystals
Measured chemistry: (Ca_0.96_Mg_0.04_)_Σ=1_(Mg_0.98_Fe^2+^_0.02_)_Σ=1_(CO_3_)_2_ ; CO_2_ estimated by difference
x	intensity
395.336	0.0691356
404.978	0.0541462
414.62	0.0419277
424.263	0.02926
433.905	0.0202197
443.547	0.0132391
453.19	0.00882659
462.832	0.00709754
472.474	0.00522412
482.117	0.00468584
491.759	0.00425035
501.401	0.00432236
511.044	0.00415902
520.686	0.00323017
530.328	0.00342981
539.971	0.00251665
549.613	0.00233708
559.255	0.00194055
568.898	0.00174846
578.54	0.00185251
588.182	0.00193222
597.825	0.00171538
607.467	0.00151289
617.109	0.00153469
626.752	0.0017157
636.394	0.00190974
646.036	0.00232938
655.679	0.00267265
665.321	0.00274049
674.963	0.00271367
684.606	0.0027405
694.248	0.00271064
703.89	0.00326352
713.533	0.0048766
723.175	0.012756
732.817	0.0141429
742.46	0.00226892
752.102	0.0018369
761.744	0.00184748
771.387	0.00193485
781.029	0.00210194
790.671	0.00246695
800.314	0.00274593
809.956	0.00320864
819.598	0.00372449
829.241	0.00439973
838.883	0.00577503
848.525	0.00885056
858.168	0.0128388
867.81	0.0270123
877.452	0.0582098
887.095	0.042595
896.737	0.00691631
906.379	0.00423116
916.022	0.00422685
925.664	0.00428582
935.306	0.00460523
944.949	0.00522815
954.591	0.00569856
964.233	0.00582845
973.876	0.00590611
983.518	0.00614929
993.16	0.00610309
1002.8	0.00626472
1012.45	0.00639806
1022.09	0.00673658
1031.73	0.00718861
1041.37	0.00765652
1051.01	0.00788695
1060.66	0.00822127
1070.3	0.00910265
1079.94	0.00968457
1089.58	0.0100638
1099.23	0.0107538
1108.87	0.0106377
1118.51	0.0115163
1128.15	0.0117911
1137.8	0.0121976
1147.44	0.0126212
1157.08	0.0131527
1166.72	0.0141076
1176.37	0.0150445
1186.01	0.0158187
1195.65	0.0165477
1205.29	0.0173757
1214.93	0.018491
1224.58	0.0198406
1234.22	0.0209023
1243.86	0.0224277
1253.5	0.0238631
1263.15	0.025346
1272.79	0.0271945
1282.43	0.029633
1292.07	0.0316647
1301.71	0.0341713
1311.36	0.036845
1321	0.0397128
1330.64	0.0433402
1340.28	0.0471781
1349.93	0.0515054
1359.57	0.0569438
1369.21	0.0629392
1378.85	0.0698838
1388.5	0.0782269
1398.14	0.0882032
1407.78	0.0969613
1417.42	0.105072
1427.07	0.111019
1436.71	0.113294
1446.35	0.10889
1455.99	0.104047
1465.63	0.0956705
1475.28	0.0870489
1484.92	0.0779953
1494.56	0.0695602
1504.2	0.0610333
1513.85	0.050964
1523.49	0.0417249
1533.13	0.0330883
1542.77	0.0260786
1552.42	0.0191081
1562.06	0.0124605
1571.7	0.0047456
1581.34	0.00161387
1590.98	0.00103605
1600.63	0.000962064
1610.27	0.000468203
1619.91	-7.12836e-06
1629.55	-0.000503309
1639.2	-0.000831537
1648.84	-0.000740119
1658.48	-0.00119461
1668.12	-0.000879408
1677.77	-0.00140084
1687.41	-0.00105747
1697.05	-0.000603396
1706.69	-0.0012916
1716.34	-0.000466918
1725.98	-0.00170079
1735.62	-0.0013157
1745.26	-0.00151613
1754.9	-0.0016489
1764.55	-0.00152929
1774.19	-0.00124898
1783.83	-0.000999844
1793.47	-0.000141886
1803.12	-5.97112e-05
1812.76	0.000808874
1822.4	0.000911856
1832.04	-0.000316993
1841.69	-0.00108209
1851.33	-0.00116478
1860.97	-0.00141349
1870.61	-0.00127456
1880.26	-0.00153263
1889.9	-0.00153796
1899.54	-0.00162584
1909.18	-0.00169743
1918.82	-0.00104158
1928.47	-0.00133804
1938.11	-0.00102461
1947.75	-0.00168242
1957.39	-0.000945572
1967.04	-0.00207837
1976.68	-0.00152408
1986.32	-0.000849354
1995.96	-0.00101953
2005.61	-0.00303581
2015.25	-0.000886681
2024.89	-0.00123395
2034.53	-0.00187752
2044.17	-0.00248071
2053.82	-0.00137904
2063.46	-0.00184761
2073.1	-0.00220749
2082.74	-0.00177095
2092.39	-0.00171567
2102.03	-0.00202889
2111.67	-0.00255446
2121.31	-0.00143486
2130.96	-0.000742342
2140.6	-0.00117221
2150.24	-0.00234592
2159.88	-0.00297628
2169.53	-0.00293759
2179.17	-0.00267599
2188.81	-0.00129501
2198.45	-0.00216241
2208.09	-0.0017148
2217.74	-0.00212205
2227.38	-0.00136446
2237.02	-0.0017761
2246.66	-0.00238451
2256.31	-0.00234372
2265.95	-0.00244752
2275.59	-0.00188039
2285.23	-0.00227606
2294.88	-0.00142629
2304.52	-0.00154344
2314.16	-0.0012889
2323.8	-0.0010592
2333.45	-0.000340205
2343.09	-8.14415e-05
2352.73	-0.000308374
2362.37	0.000728252
2372.01	-0.000182284
2381.66	-0.0014369
2391.3	-0.00128908
2400.94	-0.0016829
2410.58	-0.00140467
2420.23	-0.00161214
2429.87	-0.00117375
2439.51	-0.00168325
2449.15	-0.00178584
2458.8	-0.00141292
2468.44	-0.00110469
2478.08	-0.00135318
2487.72	-0.000980437
2497.36	-0.000830713
2507.01	-0.00107652
2516.65	6.63528e-05
2526.29	0.000602392
2535.93	-4.1044e-05
2545.58	-0.000294367
2555.22	-0.000909052
2564.86	-0.00143255
2574.5	-0.00176614
2584.14	-0.00167547
2593.79	-0.00195904
2603.43	-0.00226173
2613.07	-0.0019838
2622.72	-0.00158906
2632.36	-0.00177397
2642	-0.00182477
2651.64	-0.00194643
2661.28	-0.00192182
2670.93	-0.00199583
2680.57	-0.00165001
2690.21	-0.00216452
2699.85	-0.00224103
2709.5	-0.00190203
2719.14	-0.00221647
2728.78	-0.00213498
2738.42	-0.00201426
2748.07	-0.0019499
2757.71	-0.00217957
2767.35	-0.00218197
2776.99	-0.00192833
2786.63	-0.00210803
2796.28	-0.00247542
2805.92	-0.00239515
2815.56	-0.00242283
2825.2	-0.00240047
2834.85	-0.00211979
2844.49	-0.00249349
2854.13	-0.00217817
2863.77	-0.00190312
2873.41	-0.00184012
2883.06	-0.00190179
2892.7	-0.00180813
2902.34	-0.00165184
2911.99	-0.00190339
2921.63	-0.00176535
2931.27	-0.00215566
2940.91	-0.00228131
2950.55	-0.0018185
2960.2	-0.00254421
2969.84	-0.00226558
2979.48	-0.00178944
2989.12	-0.00177118
2998.77	-0.00144591
3008.41	-0.00195705
3018.05	0.000309553
3027.69	-0.00108757
3037.34	-0.00109694
3046.98	-0.00161072
3056.62	-0.000953368
3066.26	-0.00104427
3075.9	-0.00139484
3085.55	-0.0011846
3095.19	-0.000604812
3104.83	-0.000997155
3114.47	-0.00118933
3124.12	-0.00056516
3133.76	-0.000874577
3143.4	-0.000270908
3153.04	-0.000355372
3162.68	0.000211933
3172.33	-0.000820296
3181.97	-0.000363382
3191.61	-0.000772373
3201.26	-0.000433596
3210.9	-9.73593e-05
3220.54	-0.000170062
3230.18	-0.000824782
3239.82	-0.000532789
3249.47	-0.000115606
3259.11	-0.000415844
3268.75	-0.000547718
3278.39	-0.000880221
3288.04	-0.00111336
3297.68	-0.000667127
3307.32	-0.00129028
3316.96	-0.000679737
3326.61	-0.000540647
3336.25	-0.00108673
3345.89	0.00015575
3355.53	-0.000849936
3365.17	-0.00087752
3374.82	-0.000615556
3384.46	-0.000834159
3394.1	-0.000937083
3403.74	-0.000600747
3413.39	-0.000690017
3423.03	-0.00144923
3432.67	-0.00201732
3442.31	-0.000971246
3451.95	-0.000778222
3461.6	-0.00064553
3471.24	4.21024e-05
3480.88	-0.00148116
3490.53	-0.00155315
3500.17	-0.000638378
3509.81	-0.000901383
3519.45	-0.00116333
3529.09	-0.000552916
3538.74	-0.00185626
3548.38	-0.000958197
3558.02	-0.00185802
3567.66	-0.000878003
3577.31	-0.00149289
3586.95	0.000107365
3596.59	-0.000566212
3606.23	-0.000883453
3615.88	-0.0015193
3625.52	-0.00191268
3635.16	-0.00133836
3644.8	-0.00137286
3654.44	-0.00113215
3664.09	-0.00186598
3673.73	0.00047183
3683.37	-0.00133984
3693.01	-0.00237997
3702.66	-0.00155915
3712.3	-0.000777612
3721.94	-0.00219105
3731.58	-0.0011075
3741.22	-0.000416898
3750.87	0.000599712
3760.51	-0.00207655
3770.15	-0.00119156
3779.8	-0.00150455
3789.44	-0.00278513
3799.08	-0.00119722
3808.72	-0.00156476
3818.36	-0.00173691
3828.01	-0.00178219
3837.65	0.000426135
3847.29	-0.00164959
3856.93	-0.00141351
3866.58	-0.00246197
3876.22	-0.00251884
3885.86	-0.000552533
3895.5	-0.00270537
3905.14	-0.00186923
3914.79	-0.00160075
3924.43	-0.00153564
3934.07	-0.00238318
3943.71	-0.00121479
3953.36	-0.00155249
3963	-0.00252411
3972.64	-0.00230067
3982.28	-0.00293566
3991.93	-0.00196778
