Measurement: Infrared, Infrared Data Processed
Mineral: Dravite
Rruff sample: R050059
Ideal chemistry: NaMg_3_Al_6_(Si_6_O_18_)(BO_3_)_3_(OH)_3_OH
Locality: Nepal
Source: Rock Currier
Description: Dark brown single crystal
Measured chemistry: (Na_0.79_[box]_0.16_Ca_0.05_)_Σ=1_(Mg_2.44_Al_0.29_[box]_0.14_Fe^2+^_0.08_Ti_0.05_)_Σ=3_Al_6.00_(BO_3_)_3_Si_6.00_O_18_(OH)_4_ ; H_2_O assumed ideal from stoichiometry; B_2_O_3_ estimated by difference
x	intensity
399.193	0
408.835	0.220047
418.477	0.233232
428.12	0.22345
437.762	0.220944
447.404	0.234592
457.047	0.238649
466.689	0.241666
476.331	0.249541
485.974	0.255787
495.616	0.246961
505.258	0.229328
514.901	0.206124
524.543	0.178889
534.185	0.15789
543.828	0.142328
553.47	0.135188
563.112	0.136621
572.755	0.137914
582.397	0.132241
592.039	0.118435
601.682	0.10811
611.324	0.10566
620.966	0.0898555
630.609	0.0759192
640.251	0.0656561
649.893	0.0712784
659.536	0.0732489
669.178	0.0703731
678.82	0.0754916
688.463	0.0791029
698.105	0.0895352
707.747	0.103306
717.39	0.0994776
727.032	0.0742589
736.674	0.0626056
746.317	0.0646801
755.959	0.0778444
765.601	0.0752928
775.244	0.0787445
784.886	0.0763148
794.528	0.0539654
804.171	0.0328617
813.813	0.0340345
823.455	0.0345204
833.098	0.0322609
842.74	0.0310084
852.382	0.0325412
862.025	0.0354155
871.667	0.0374761
881.309	0.0410183
890.952	0.0520841
900.594	0.0689228
910.236	0.0875262
919.879	0.107682
929.521	0.133142
939.163	0.165889
948.806	0.199611
958.448	0.228296
968.09	0.245088
977.733	0.247415
987.375	0.238299
997.017	0.213867
1006.66	0.188647
1016.3	0.17822
1025.94	0.185363
1035.59	0.186984
1045.23	0.174583
1054.87	0.144223
1064.51	0.119939
1074.16	0.110181
1083.8	0.105675
1093.44	0.102166
1103.08	0.0892146
1112.72	0.06559
1122.37	0.0438626
1132.01	0.0269875
1141.65	0.0163403
1151.3	0.0115615
1160.94	0.00975309
1170.58	0.00927579
1180.22	0.00960802
1189.86	0.0109181
1199.51	0.0134396
1209.15	0.0190814
1218.79	0.0320075
1228.43	0.0591898
1238.08	0.0929293
1247.72	0.112299
1257.36	0.114916
1267	0.108549
1276.64	0.0991038
1286.29	0.0892529
1295.93	0.0826214
1305.57	0.0772588
1315.21	0.0723752
1324.86	0.067693
1334.5	0.0681581
1344.14	0.0803116
1353.78	0.08417
1363.43	0.0745589
1373.07	0.0610018
1382.71	0.047753
1392.35	0.0373836
1401.99	0.0300973
1411.64	0.024136
1421.28	0.019807
1430.92	0.0157
1440.57	0.0115724
1450.21	0.00832948
1459.85	0.00675582
1469.49	0.00567172
1479.13	0.00510283
1488.78	0.0049156
1498.42	0.00442377
1508.06	0.00365089
1517.7	0.00359147
1527.35	0.00384755
1536.99	0.00330828
1546.63	0.00334532
1556.27	0.00364312
1565.91	0.0041301
1575.56	0.0037198
1585.2	0.00430417
1594.84	0.00428503
1604.48	0.00440451
1614.13	0.00472228
1623.77	0.00458922
1633.41	0.00436344
1643.05	0.0043895
1652.7	0.00424542
1662.34	0.00457682
1671.98	0.00462988
1681.62	0.00405709
1691.27	0.00413408
1700.91	0.0037306
1710.55	0.00434793
1720.19	0.00322241
1729.84	0.00323798
1739.48	0.00212364
1749.12	0.00216532
1758.76	0.0028229
1768.4	0.00255872
1778.05	0.00282705
1787.69	0.00279615
1797.33	0.00272454
1806.97	0.00252844
1816.62	0.00218184
1826.26	0.00271258
1835.9	0.00252909
1845.54	0.00171591
1855.18	0.00203724
1864.83	0.00216448
1874.47	0.00209671
1884.11	0.000590127
1893.75	0.0011908
1903.4	0.00155756
1913.04	0.000844906
1922.68	-0.000365442
1932.32	-0.00192101
1941.97	-0.00157259
1951.61	-0.00215096
1961.25	-0.00402077
1970.89	-0.00389088
1980.54	0.000497068
1990.18	-0.0025117
1999.82	-0.00307307
2009.46	-0.00428729
2019.11	-0.00314868
2028.75	-0.00401015
2038.39	-0.000406994
2048.03	0.00203704
2057.67	-0.000170523
2067.32	-6.00044e-05
2076.96	0.00298181
2086.6	0.00128118
2096.24	0.00217558
2105.89	0.00182626
2115.53	0.00189279
2125.17	-0.000485266
2134.81	-0.00129745
2144.45	-0.000336968
2154.1	-0.00218753
2163.74	0.00380677
2173.38	0.00235667
2183.02	-0.00221716
2192.67	0.00324014
2202.31	0.00284372
2211.95	0.00196208
2221.59	0.00496431
2231.24	0.00417262
2240.88	0.0072647
2250.52	0.00675206
2260.16	0.00583508
2269.8	0.00780912
2279.45	0.00852769
2289.09	0.0081316
2298.73	0.00849226
2308.38	0.00860166
2318.02	0.00915112
2327.66	0.0077864
2337.3	0.00792532
2346.94	0.00720457
2356.59	0.00709487
2366.23	0.00638159
2375.87	0.00688496
2385.51	0.00691082
2395.16	0.00644485
2404.8	0.00662527
2414.44	0.0072062
2424.08	0.006296
2433.72	0.00638945
2443.37	0.00709378
2453.01	0.00616472
2462.65	0.00587499
2472.29	0.00515808
2481.94	0.00615639
2491.58	0.00543384
2501.22	0.00503804
2510.86	0.0048594
2520.51	0.00513102
2530.15	0.00558619
2539.79	0.00451989
2549.43	0.00594623
2559.07	0.00648398
2568.72	0.00707252
2578.36	0.00626902
2588	0.00698359
2597.64	0.007237
2607.29	0.00807114
2616.93	0.00798775
2626.57	0.00826959
2636.21	0.00865864
2645.86	0.00806307
2655.5	0.00869517
2665.14	0.00743381
2674.78	0.0069713
2684.43	0.00670962
2694.07	0.00696051
2703.71	0.00756272
2713.35	0.0067468
2722.99	0.00740547
2732.64	0.00760229
2742.28	0.00722354
2751.92	0.00746178
2761.56	0.00841066
2771.21	0.00859286
2780.85	0.00762488
2790.49	0.0076445
2800.13	0.00902603
2809.78	0.00874417
2819.42	0.00860221
2829.06	0.00910161
2838.7	0.00881199
2848.34	0.00903499
2857.99	0.00893216
2867.63	0.00903246
2877.27	0.00938507
2886.91	0.00947921
2896.56	0.0097556
2906.2	0.00973071
2915.84	0.00978366
2925.48	0.00914144
2935.13	0.00890674
2944.77	0.00962159
2954.41	0.00826808
2964.05	0.00944786
2973.7	0.00984954
2983.34	0.00966202
2992.98	0.0102823
3002.62	0.0104674
3012.26	0.0104618
3021.91	0.0105551
3031.55	0.0116333
3041.19	0.0102655
3050.83	0.0104881
3060.48	0.0119679
3070.12	0.0109262
3079.76	0.011046
3089.4	0.0113752
3099.05	0.0126325
3108.69	0.0113203
3118.33	0.0112679
3127.97	0.0111302
3137.61	0.0118265
3147.26	0.0126806
3156.9	0.0116202
3166.54	0.0112111
3176.18	0.0120451
3185.83	0.0115483
3195.47	0.0133983
3205.11	0.01374
3214.75	0.0146481
3224.4	0.0126599
3234.04	0.013748
3243.68	0.0124512
3253.32	0.0140713
3262.97	0.0139267
3272.61	0.014489
3282.25	0.0139989
3291.89	0.014699
3301.53	0.0140717
3311.18	0.0147296
3320.82	0.0140281
3330.46	0.013605
3340.1	0.0140501
3349.75	0.0144289
3359.39	0.0152149
3369.03	0.0159452
3378.67	0.0153791
3388.32	0.015744
3397.96	0.0163337
3407.6	0.0159392
3417.24	0.0157024
3426.89	0.0163458
3436.53	0.0170427
3446.17	0.017533
3455.81	0.017833
3465.45	0.0196333
3475.1	0.0192364
3484.74	0.0210614
3494.38	0.0219542
3504.02	0.0227878
3513.67	0.0249027
3523.31	0.0261845
3532.95	0.0269166
3542.59	0.0276886
3552.24	0.028814
3561.88	0.0299212
3571.52	0.0277714
3581.16	0.0231711
3590.8	0.0163029
3600.45	0.0127988
3610.09	0.0123295
3619.73	0.00826031
3629.37	0.0120196
3639.02	0.00905406
3648.66	0.0100798
3658.3	0.0101742
3667.94	0.0103415
3677.59	0.00968498
3687.23	0.00954903
3696.87	0.00873055
3706.51	0.0111889
3716.16	0.00974236
3725.8	0.010324
3735.44	0.00920219
3745.08	0.0105174
3754.72	0.0101532
3764.37	0.00917041
3774.01	0.0094787
3783.65	0.0111619
3793.29	0.0108566
3802.94	0.0128058
3812.58	0.0108673
3822.22	0.0105861
3831.86	0.00809669
3841.51	0.00857895
3851.15	0.0104958
3860.79	0.00848842
3870.43	0.00865972
3880.07	0.0104506
3889.72	0.0116858
3899.36	0.00980579
3909	0.00945303
3918.64	0.011051
3928.29	0.0100232
3937.93	0.00766045
3947.57	0.0085768
3957.21	0.00997554
3966.86	0.00931117
3976.5	0.010233
3986.14	0.0133305
3995.78	0.0106524
