Measurement: Infrared, Infrared Data Processed
Mineral: Duftite
Rruff sample: R050507
Ideal chemistry: Pb^2+^Cu^2+^As^5+^O_4_(OH)
Locality: Mt. Bonney, Northern Territory, Australia
Source: University of Arizona Mineral Museum
Description: Green aggregate of acicular crystals forming round wheel-like shapes, intimately mixed with mimetite
Measured chemistry: Pb_1.00_Cu_1.00_As_1.00_O_4_(OH) ; = dark phase. The lght phase is mimetite: (Pb_4.95_Cu_0.05_)_Î£=5_(As_1.00_O_4_)_3_Cl_1.00_; OH estimated by charge balance
x	intensity
399.193	0.470949
408.835	0.369587
418.477	0.305814
428.12	0.275609
437.762	0.242265
447.404	0.20607
457.047	0.161625
466.689	0.112646
476.331	0.100509
485.974	0.0980372
495.616	0.109752
505.258	0.173173
514.901	0.24583
524.543	0.219026
534.185	0.154735
543.828	0.102364
553.47	0.0852274
563.112	0.0870529
572.755	0.0837474
582.397	0.0830275
592.039	0.0880892
601.682	0.0931382
611.324	0.100009
620.966	0.106401
630.609	0.116913
640.251	0.132215
649.893	0.152896
659.536	0.180551
669.178	0.212962
678.82	0.248988
688.463	0.288665
698.105	0.326332
707.747	0.365932
717.39	0.406498
727.032	0.444274
736.674	0.472281
746.317	0.448622
755.959	0.394029
765.601	0.329708
775.244	0.265981
784.886	0.24349
794.528	0.259339
804.171	0.29802
813.813	0.254099
823.455	0.200299
833.098	0.120964
842.74	0.0746393
852.382	0.0552154
862.025	0.0431459
871.667	0.0392229
881.309	0.0366922
890.952	0.0409998
900.594	0.0571041
910.236	0.0755429
919.879	0.0599774
929.521	0.0371307
939.163	0.0339809
948.806	0.0375367
958.448	0.0409341
968.09	0.0474726
977.733	0.0764436
987.375	0.109596
997.017	0.0768293
1006.66	0.0511162
1016.3	0.034818
1025.94	0.0259259
1035.59	0.0225749
1045.23	0.0209146
1054.87	0.019787
1064.51	0.0191046
1074.16	0.0192021
1083.8	0.0197935
1093.44	0.0202107
1103.08	0.0200149
1112.72	0.0192462
1122.37	0.0179032
1132.01	0.0168526
1141.65	0.0160739
1151.3	0.0157117
1160.94	0.0153088
1170.58	0.0156446
1180.22	0.0159837
1189.86	0.0160758
1199.51	0.0159037
1209.15	0.0158101
1218.79	0.016224
1228.43	0.0162386
1238.08	0.0160091
1247.72	0.0159908
1257.36	0.0165005
1267	0.0167392
1276.64	0.0182989
1286.29	0.017873
1295.93	0.0179101
1305.57	0.0180412
1315.21	0.0179696
1324.86	0.0182222
1334.5	0.0184992
1344.14	0.0189259
1353.78	0.0190699
1363.43	0.0197741
1373.07	0.0207145
1382.71	0.0214905
1392.35	0.0222251
1401.99	0.022449
1411.64	0.0231087
1421.28	0.0227581
1430.92	0.0232618
1440.57	0.0235246
1450.21	0.0238945
1459.85	0.0239817
1469.49	0.0236711
1479.13	0.0238683
1488.78	0.0240908
1498.42	0.0241204
1508.06	0.0242693
1517.7	0.0239985
1527.35	0.0244422
1536.99	0.0246561
1546.63	0.0246977
1556.27	0.0245636
1565.91	0.024553
1575.56	0.0247569
1585.2	0.0247766
1594.84	0.0252124
1604.48	0.0256187
1614.13	0.0254149
1623.77	0.0254486
1633.41	0.0252521
1643.05	0.0254793
1652.7	0.0258338
1662.34	0.0253709
1671.98	0.025168
1681.62	0.0253486
1691.27	0.0258044
1700.91	0.0263608
1710.55	0.0263357
1720.19	0.0270619
1729.84	0.0270372
1739.48	0.0256049
1749.12	0.0253194
1758.76	0.0272631
1768.4	0.0283133
1778.05	0.0289733
1787.69	0.0281324
1797.33	0.0274897
1806.97	0.0270559
1816.62	0.026176
1826.26	0.0264013
1835.9	0.0258561
1845.54	0.0260792
1855.18	0.0249739
1864.83	0.0258886
1874.47	0.0260801
1884.11	0.0258628
1893.75	0.0257587
1903.4	0.0254602
1913.04	0.0259924
1922.68	0.0253814
1932.32	0.0260252
1941.97	0.0261575
1951.61	0.0257735
1961.25	0.0225093
1970.89	0.0207054
1980.54	0.021598
1990.18	0.0228369
1999.82	0.0217734
2009.46	0.0229946
2019.11	0.0207575
2028.75	0.0240602
2038.39	0.0233589
2048.03	0.02471
2057.67	0.0245675
2067.32	0.0255994
2076.96	0.0251463
2086.6	0.0242336
2096.24	0.0251589
2105.89	0.0251946
2115.53	0.0245617
2125.17	0.0249916
2134.81	0.0245932
2144.45	0.0246062
2154.1	0.0225379
2163.74	0.0248915
2173.38	0.0242059
2183.02	0.0250164
2192.67	0.0248473
2202.31	0.0254397
2211.95	0.0259248
2221.59	0.0267958
2231.24	0.0266525
2240.88	0.0262575
2250.52	0.0264085
2260.16	0.0271388
2269.8	0.0280807
2279.45	0.0278448
2289.09	0.0274818
2298.73	0.027454
2308.38	0.0277252
2318.02	0.0285125
2327.66	0.0285361
2337.3	0.0292943
2346.94	0.0284425
2356.59	0.0292812
2366.23	0.0292735
2375.87	0.0285426
2385.51	0.0280845
2395.16	0.0283494
2404.8	0.0285371
2414.44	0.0279586
2424.08	0.0283946
2433.72	0.0283927
2443.37	0.028848
2453.01	0.0288379
2462.65	0.0287942
2472.29	0.0289604
2481.94	0.0295246
2491.58	0.0289553
2501.22	0.0291647
2510.86	0.0291712
2520.51	0.0293639
2530.15	0.029626
2539.79	0.0293107
2549.43	0.0294958
2559.07	0.0293826
2568.72	0.0293861
2578.36	0.0297198
2588	0.0297877
2597.64	0.0299057
2607.29	0.0302795
2616.93	0.030733
2626.57	0.0308399
2636.21	0.0309859
2645.86	0.0313576
2655.5	0.0310821
2665.14	0.0307193
2674.78	0.0308624
2684.43	0.0311491
2694.07	0.0312986
2703.71	0.0320916
2713.35	0.0315889
2722.99	0.0318875
2732.64	0.0318121
2742.28	0.0325765
2751.92	0.0323057
2761.56	0.0326722
2771.21	0.0323758
2780.85	0.0326006
2790.49	0.0330896
2800.13	0.0332811
2809.78	0.0331288
2819.42	0.0334913
2829.06	0.0337844
2838.7	0.0344207
2848.34	0.0335191
2857.99	0.0334563
2867.63	0.0348972
2877.27	0.0348801
2886.91	0.0354962
2896.56	0.0358627
2906.2	0.0352775
2915.84	0.0357606
2925.48	0.0357663
2935.13	0.0361765
2944.77	0.0367418
2954.41	0.0371174
2964.05	0.0377392
2973.7	0.0375483
2983.34	0.0387506
2992.98	0.0387496
3002.62	0.0390364
3012.26	0.0397598
3021.91	0.0406471
3031.55	0.0411844
3041.19	0.0414303
3050.83	0.0428444
3060.48	0.043688
3070.12	0.0439904
3079.76	0.0448749
3089.4	0.0457623
3099.05	0.0469077
3108.69	0.0480682
3118.33	0.0485793
3127.97	0.049304
3137.61	0.0505952
3147.26	0.0522557
3156.9	0.0530138
3166.54	0.0545071
3176.18	0.0549386
3185.83	0.0564848
3195.47	0.0573336
3205.11	0.0572258
3214.75	0.0581638
3224.4	0.0590914
3234.04	0.0603974
3243.68	0.0586193
3253.32	0.0562474
3262.97	0.0539883
3272.61	0.0514881
3282.25	0.0496707
3291.89	0.0470533
3301.53	0.0451584
3311.18	0.0425609
3320.82	0.0404992
3330.46	0.038419
3340.1	0.0364573
3349.75	0.0351331
3359.39	0.0341544
3369.03	0.0326288
3378.67	0.0321854
3388.32	0.0314084
3397.96	0.03038
3407.6	0.0303498
3417.24	0.0299072
3426.89	0.0298177
3436.53	0.0286068
3446.17	0.0283898
3455.81	0.0295488
3465.45	0.02838
3475.1	0.0280554
3484.74	0.0293856
3494.38	0.0282906
3504.02	0.0281535
3513.67	0.0287419
3523.31	0.0277456
3532.95	0.0286283
3542.59	0.0278616
3552.24	0.0284203
3561.88	0.0265558
3571.52	0.02777
3581.16	0.0277816
3590.8	0.0279706
3600.45	0.0273878
3610.09	0.0290295
3619.73	0.0289472
3629.37	0.0287026
3639.02	0.0276996
3648.66	0.0282341
3658.3	0.0287293
3667.94	0.0287363
3677.59	0.0282481
3687.23	0.0304966
3696.87	0.0291868
3706.51	0.0280308
3716.16	0.0292214
3725.8	0.0308372
3735.44	0.0294276
3745.08	0.0294701
3754.72	0.0299787
3764.37	0.0307146
3774.01	0.0293533
3783.65	0.0296435
3793.29	0.0294914
3802.94	0.0300341
3812.58	0.0297164
3822.22	0.0295748
3831.86	0.0303447
3841.51	0.0313069
3851.15	0.0302034
3860.79	0.0298776
3870.43	0.030195
3880.07	0.0305048
3889.72	0.0313332
3899.36	0.0303952
3909	0.0306107
3918.64	0.0298278
3928.29	0.0312651
3937.93	0.0318841
3947.57	0.0316403
3957.21	0.0309317
3966.86	0.0314651
3976.5	0.0304804
3986.14	0.032164
3995.78	0.0308107
