Measurement: Infrared, Infrared Data Processed
Mineral: Elbaite
Rruff sample: R050260
Ideal chemistry: Na(Al_1.5_Li_1.5_)Al_6_(Si_6_O_18_)(BO_3_)_3_(OH)_3_OH
Locality: Minas Gerais, Brazil
Source: Marcus Origlieri
Description: Greenish-gray prismatic single crystal
Measured chemistry: (Na_0.76_[box]_0.17_Ca_0.07_)_Σ=1_(Al_1.67_Li_0.97_Mn_0.36_)_Σ=3_Al_6.00_(B_1.00_O_3_)_3_Si_6.00_O_18_((OH)_3.40_F_0.60_)_Σ=4_; B assumed by stoichiometry; OH estimated by charge balance
x	intensity
372.194	0
381.836	0.230879
391.479	0.236437
401.121	0.224526
410.763	0.23787
420.406	0.249091
430.048	0.250873
439.69	0.257631
449.333	0.263565
458.975	0.254483
468.617	0.249229
478.26	0.25258
487.902	0.254449
497.544	0.253492
507.187	0.240923
516.829	0.219398
526.471	0.199399
536.114	0.184115
545.756	0.17369
555.398	0.164643
565.041	0.155736
574.683	0.14932
584.325	0.145741
593.968	0.134786
603.61	0.120976
613.252	0.114037
622.895	0.118225
632.537	0.113243
642.179	0.096753
651.822	0.0870532
661.464	0.0807617
671.106	0.0686616
680.749	0.0637325
690.391	0.0682277
700.033	0.0857894
709.676	0.104147
719.318	0.098957
728.96	0.0695311
738.603	0.0533395
748.245	0.0574798
757.887	0.0602133
767.53	0.0674671
777.172	0.0925863
786.814	0.088738
796.457	0.060792
806.099	0.0338796
815.741	0.0297999
825.384	0.0334087
835.026	0.0393277
844.668	0.0460394
854.311	0.0502535
863.953	0.0518483
873.595	0.0530683
883.238	0.0566707
892.88	0.0667617
902.522	0.0776742
912.165	0.0973819
921.807	0.128474
931.449	0.164147
941.092	0.199397
950.734	0.230139
960.376	0.251147
970.019	0.256255
979.661	0.251154
989.303	0.23584
998.946	0.211517
1008.59	0.192651
1018.23	0.187558
1027.87	0.180549
1037.52	0.159914
1047.16	0.146993
1056.8	0.134224
1066.44	0.112363
1076.08	0.0981622
1085.73	0.106462
1095.37	0.121585
1105.01	0.11787
1114.65	0.0953169
1124.3	0.0675074
1133.94	0.0459355
1143.58	0.0320374
1153.22	0.0188729
1162.87	0.0127456
1172.51	0.0114015
1182.15	0.0129981
1191.79	0.0147942
1201.43	0.0165496
1211.08	0.0218178
1220.72	0.0326022
1230.36	0.0493167
1240	0.0613412
1249.65	0.0701841
1259.29	0.080062
1268.93	0.0916766
1278.57	0.10071
1288.22	0.10819
1297.86	0.109172
1307.5	0.0994351
1317.14	0.0878084
1326.79	0.0764289
1336.43	0.0724912
1346.07	0.0738748
1355.71	0.0698606
1365.35	0.0574569
1375	0.0464678
1384.64	0.0413178
1394.28	0.036296
1403.92	0.0287577
1413.57	0.0241698
1423.21	0.018256
1432.85	0.0168737
1442.49	0.0157815
1452.13	0.0137074
1461.78	0.0128321
1471.42	0.00995176
1481.06	0.00947502
1490.7	0.00895268
1500.35	0.00790802
1509.99	0.00674202
1519.63	0.0058619
1529.27	0.0063511
1538.92	0.00530797
1548.56	0.00458599
1558.2	0.00394283
1567.84	0.00400454
1577.49	0.00425635
1587.13	0.00456634
1596.77	0.00479743
1606.41	0.00469343
1616.06	0.00423622
1625.7	0.00396379
1635.34	0.00376083
1644.98	0.0036646
1654.62	0.00336837
1664.27	0.00325486
1673.91	0.00301334
1683.55	0.00291613
1693.19	0.00271134
1702.84	0.00249456
1712.48	0.00224053
1722.12	0.00199038
1731.76	0.00165435
1741.4	0.00134195
1751.05	0.000829212
1760.69	0.00149964
1770.33	0.0018519
1779.97	0.00187786
1789.62	0.00187256
1799.26	0.0019108
1808.9	0.00159419
1818.54	0.00179827
1828.19	0.00155886
1837.83	0.00207195
1847.47	0.00152785
1857.11	0.00164133
1866.76	0.00157297
1876.4	0.00113852
1886.04	0.00114485
1895.68	0.00136875
1905.33	0.00155934
1914.97	0.00061543
1924.61	0.000440636
1934.25	0.000833472
1943.89	0.00103478
1953.54	0.000125035
1963.18	0.00108124
1972.82	0.00177702
1982.46	0.00302521
1992.11	0.00286914
2001.75	0.00138118
2011.39	0.00301183
2021.03	0.00154383
2030.67	0.00364287
2040.32	0.00358163
2049.96	0.00295796
2059.6	0.00287177
2069.24	0.00293204
2078.89	0.00318765
2088.53	0.00249573
2098.17	0.00309827
2107.81	0.00224137
2117.46	0.00282144
2127.1	0.00164413
2136.74	0.00244523
2146.38	0.00130326
2156.03	0.00430085
2165.67	0.00626151
2175.31	0.00400626
2184.95	0.00535067
2194.59	0.00483238
2204.24	0.00358019
2213.88	0.00418837
2223.52	0.00523801
2233.16	0.00533461
2242.81	0.00475845
2252.45	0.00478044
2262.09	0.00478417
2271.73	0.00623363
2281.38	0.00602563
2291.02	0.00596079
2300.66	0.00529779
2310.3	0.00540176
2319.95	0.00587298
2329.59	0.00518042
2339.23	0.00501167
2348.87	0.00457683
2358.51	0.0050704
2368.16	0.00493388
2377.8	0.00369184
2387.44	0.00410484
2397.08	0.00367751
2406.73	0.00423167
2416.37	0.00380803
2426.01	0.00371808
2435.65	0.00374271
2445.3	0.00429879
2454.94	0.00327508
2464.58	0.00315841
2474.22	0.00336412
2483.86	0.00264096
2493.51	0.00314116
2503.15	0.00303782
2512.79	0.00295789
2522.43	0.00207683
2532.08	0.00300399
2541.72	0.00288115
2551.36	0.00263196
2561	0.00333206
2570.65	0.00315425
2580.29	0.003622
2589.93	0.00304734
2599.57	0.00352383
2609.22	0.00388772
2618.86	0.00430946
2628.5	0.00510309
2638.14	0.0044884
2647.78	0.00502947
2657.43	0.00477729
2667.07	0.00411973
2676.71	0.00413239
2686.35	0.00423954
2696	0.00418304
2705.64	0.00433322
2715.28	0.00430109
2724.92	0.00460483
2734.57	0.00450062
2744.21	0.00460412
2753.85	0.00475138
2763.49	0.00503281
2773.14	0.00492288
2782.78	0.00485984
2792.42	0.00481122
2802.06	0.00538462
2811.7	0.00565808
2821.35	0.00515481
2830.99	0.00569251
2840.63	0.00576592
2850.27	0.00292108
2859.92	0.0039652
2869.56	0.00455379
2879.2	0.00569799
2888.84	0.00567403
2898.49	0.00469108
2908.13	0.00462839
2917.77	0.00221939
2927.41	0.00155787
2937.05	0.00343678
2946.7	0.00473405
2956.34	0.00530598
2965.98	0.00613355
2975.62	0.00639488
2985.27	0.0064246
2994.91	0.00643225
3004.55	0.00635738
3014.19	0.00657093
3023.84	0.00679262
3033.48	0.00683808
3043.12	0.00742596
3052.76	0.00768485
3062.41	0.00726052
3072.05	0.00777141
3081.69	0.00718473
3091.33	0.00728566
3100.97	0.00835099
3110.62	0.00816559
3120.26	0.00816863
3129.9	0.00911716
3139.54	0.00862663
3149.19	0.00903139
3158.83	0.00947882
3168.47	0.00886613
3178.11	0.00909426
3187.76	0.00944837
3197.4	0.010139
3207.04	0.00960672
3216.68	0.00961466
3226.32	0.0102661
3235.97	0.0102564
3245.61	0.00965823
3255.25	0.0103381
3264.89	0.0106689
3274.54	0.0104623
3284.18	0.0107169
3293.82	0.01062
3303.46	0.0104471
3313.11	0.0110294
3322.75	0.0104783
3332.39	0.0107982
3342.03	0.010157
3351.68	0.0109476
3361.32	0.0115203
3370.96	0.0112803
3380.6	0.0112384
3390.24	0.0114371
3399.89	0.0112043
3409.53	0.0123242
3419.17	0.0131592
3428.81	0.0142813
3438.46	0.0155793
3448.1	0.0181945
3457.74	0.0190234
3467.38	0.0223122
3477.03	0.021756
3486.67	0.0212688
3496.31	0.0195606
3505.95	0.0147469
3515.59	0.0105544
3525.24	0.00985855
3534.88	0.00978299
3544.52	0.0121599
3554.16	0.0140707
3563.81	0.0150657
3573.45	0.0152275
3583.09	0.0177055
3592.73	0.015736
3602.38	0.0111259
3612.02	0.0040749
3621.66	0.00298114
3631.3	0.00312017
3640.95	0.00405213
3650.59	0.00395172
3660.23	0.00273473
3669.87	0.00392477
3679.51	0.00315853
3689.16	0.00342283
3698.8	0.00310788
3708.44	0.00412229
3718.08	0.00376998
3727.73	0.00465793
3737.37	0.00420963
3747.01	0.00322806
3756.65	0.00432162
3766.3	0.00375935
3775.94	0.00387994
3785.58	0.00516648
3795.22	0.00331324
3804.86	0.00308546
3814.51	0.00397179
3824.15	0.00351301
3833.79	0.00313369
3843.43	0.00337015
3853.08	0.00298944
3862.72	0.00370694
3872.36	0.00330533
3882	0.00349267
3891.65	0.00324576
3901.29	0.00347215
3910.93	0.00391526
3920.57	0.00312512
3930.22	0.00296595
3939.86	0.00312977
3949.5	0.00439336
3959.14	0.00305407
3968.78	0.00260066
3978.43	0.00323068
3988.07	0.00266926
3997.71	0.00372587
