Measurement: Infrared, Infrared Data Processed
Mineral: Elbaite
Rruff sample: R060003
Ideal chemistry: Na(Al_1.5_Li_1.5_)Al_6_(Si_6_O_18_)(BO_3_)_3_(OH)_3_OH
Locality: Mount Begbie, Revelstoke, British Columbia, Canada
Source: Bob Downs
Description: Pink crystal associated with trilithionite, R060004
Measured chemistry: (Na_0.58_[box]_0.42_)(Al_1.69_Li_1.27_Mn_0.04_)Al_6_(BO_3_)_3_[Si_6_O_18_](OH)_4_
x	intensity
399.193	0.23789
408.835	0.252563
418.477	0.27234
428.12	0.283663
437.762	0.277408
447.404	0.291911
457.047	0.286159
466.689	0.285174
476.331	0.286837
485.974	0.289
495.616	0.276206
505.258	0.263078
514.901	0.248433
524.543	0.230261
534.185	0.2155
543.828	0.201463
553.47	0.190772
563.112	0.187653
572.755	0.183172
582.397	0.176601
592.039	0.166663
601.682	0.147662
611.324	0.132159
620.966	0.126097
630.609	0.122527
640.251	0.112949
649.893	0.0984888
659.536	0.0915538
669.178	0.0782784
678.82	0.0737346
688.463	0.073271
698.105	0.0821857
707.747	0.104513
717.39	0.111603
727.032	0.0886618
736.674	0.0672611
746.317	0.0657271
755.959	0.0658525
765.601	0.0646765
775.244	0.0848442
784.886	0.103216
794.528	0.0805103
804.171	0.0468212
813.813	0.0359764
823.455	0.0355627
833.098	0.0397103
842.74	0.0428192
852.382	0.0495333
862.025	0.0583173
871.667	0.0639631
881.309	0.0662481
890.952	0.0685256
900.594	0.071496
910.236	0.0826367
919.879	0.106197
929.521	0.139472
939.163	0.178794
948.806	0.2213
958.448	0.260523
968.09	0.283795
977.733	0.285631
987.375	0.278039
997.017	0.26157
1006.66	0.23544
1016.3	0.215447
1025.94	0.205574
1035.59	0.190818
1045.23	0.166895
1054.87	0.153064
1064.51	0.142071
1074.16	0.130556
1083.8	0.1178
1093.44	0.116662
1103.08	0.120907
1112.72	0.115833
1122.37	0.0950506
1132.01	0.0731207
1141.65	0.05447
1151.3	0.0357818
1160.94	0.0225141
1170.58	0.0173492
1180.22	0.0182813
1189.86	0.0224606
1199.51	0.0219717
1209.15	0.0218086
1218.79	0.0259284
1228.43	0.0348487
1238.08	0.0504132
1247.72	0.0695674
1257.36	0.0827604
1267	0.0936368
1276.64	0.104917
1286.29	0.110196
1295.93	0.114652
1305.57	0.114822
1315.21	0.107012
1324.86	0.0979872
1334.5	0.0918598
1344.14	0.0910945
1353.78	0.0898467
1363.43	0.080486
1373.07	0.0662334
1382.71	0.0557612
1392.35	0.0473469
1401.99	0.0374301
1411.64	0.0300942
1421.28	0.0237018
1430.92	0.0175836
1440.57	0.0149632
1450.21	0.012867
1459.85	0.013336
1469.49	0.0115484
1479.13	0.00703069
1488.78	0.00607169
1498.42	0.00577787
1508.06	0.00654615
1517.7	0.00563466
1527.35	0.00471142
1536.99	0.00439161
1546.63	0.00408286
1556.27	0.00425956
1565.91	0.00346253
1575.56	0.00349943
1585.2	0.00422511
1594.84	0.00450452
1604.48	0.00478083
1614.13	0.004524
1623.77	0.00519804
1633.41	0.00559272
1643.05	0.00588999
1652.7	0.00533163
1662.34	0.00543505
1671.98	0.00529785
1681.62	0.00557658
1691.27	0.00522236
1700.91	0.00494207
1710.55	0.00467983
1720.19	0.00438806
1729.84	0.00447141
1739.48	0.00403171
1749.12	0.00457705
1758.76	0.00443516
1768.4	0.00406995
1778.05	0.00435367
1787.69	0.00492759
1797.33	0.00319015
1806.97	0.00438278
1816.62	0.0043509
1826.26	0.00418564
1835.9	0.00482837
1845.54	0.00445788
1855.18	0.00495046
1864.83	0.00387138
1874.47	0.00447716
1884.11	0.00382893
1893.75	0.00454688
1903.4	0.00340994
1913.04	0.00418262
1922.68	0.00216825
1932.32	0.0038676
1941.97	0.00382071
1951.61	0.00620805
1961.25	0.00381909
1970.89	0.000513963
1980.54	0.00498194
1990.18	0.0047776
1999.82	0.00195992
2009.46	0.00252496
2019.11	-5.71986e-05
2028.75	0.00160891
2038.39	0.00868162
2048.03	0.00550309
2057.67	0.00325841
2067.32	0.00987245
2076.96	0.00612692
2086.6	0.00644261
2096.24	0.00570868
2105.89	0.00644193
2115.53	0.00544165
2125.17	0.00392711
2134.81	0.00359208
2144.45	0.00384765
2154.1	0.00143357
2163.74	0.00596796
2173.38	0.00875309
2183.02	0.00782953
2192.67	0.00710667
2202.31	0.00569159
2211.95	0.00497752
2221.59	0.00436953
2231.24	0.00922348
2240.88	0.0077293
2250.52	0.00621925
2260.16	0.00732174
2269.8	0.00816845
2279.45	0.0115443
2289.09	0.00982252
2298.73	0.010102
2308.38	0.0100955
2318.02	0.00952561
2327.66	0.00877443
2337.3	0.00905423
2346.94	0.00974976
2356.59	0.0078625
2366.23	0.00759117
2375.87	0.00882484
2385.51	0.0094474
2395.16	0.00978989
2404.8	0.0103345
2414.44	0.0111716
2424.08	0.00823436
2433.72	0.0101953
2443.37	0.00964532
2453.01	0.00910964
2462.65	0.0105627
2472.29	0.0101523
2481.94	0.00942353
2491.58	0.00847487
2501.22	0.00883974
2510.86	0.00889949
2520.51	0.010267
2530.15	0.00829982
2539.79	0.0104507
2549.43	0.0080665
2559.07	0.00697448
2568.72	0.00906164
2578.36	0.00919918
2588	0.0110946
2597.64	0.00958756
2607.29	0.0112241
2616.93	0.0109722
2626.57	0.0112732
2636.21	0.0117899
2645.86	0.0112835
2655.5	0.0115587
2665.14	0.0106694
2674.78	0.0116045
2684.43	0.0105
2694.07	0.0118652
2703.71	0.0112807
2713.35	0.0117049
2722.99	0.0116441
2732.64	0.0124587
2742.28	0.011488
2751.92	0.0127664
2761.56	0.0124651
2771.21	0.0125501
2780.85	0.0127302
2790.49	0.0132247
2800.13	0.0146249
2809.78	0.014085
2819.42	0.014087
2829.06	0.0140705
2838.7	0.0155744
2848.34	0.0154049
2857.99	0.0153682
2867.63	0.0161788
2877.27	0.0162928
2886.91	0.0167591
2896.56	0.0159832
2906.2	0.0178358
2915.84	0.017492
2925.48	0.0190578
2935.13	0.0187419
2944.77	0.0192794
2954.41	0.0177612
2964.05	0.0183567
2973.7	0.0189748
2983.34	0.0191632
2992.98	0.0196658
3002.62	0.0192908
3012.26	0.0194267
3021.91	0.0195642
3031.55	0.018636
3041.19	0.0204738
3050.83	0.0197583
3060.48	0.0202166
3070.12	0.0203021
3079.76	0.0204929
3089.4	0.0219855
3099.05	0.0232228
3108.69	0.0226095
3118.33	0.0205745
3127.97	0.019426
3137.61	0.023172
3147.26	0.0214901
3156.9	0.0226382
3166.54	0.0236762
3176.18	0.0229417
3185.83	0.0240724
3195.47	0.024964
3205.11	0.0247576
3214.75	0.0253375
3224.4	0.0227054
3234.04	0.0255473
3243.68	0.0249767
3253.32	0.0259999
3262.97	0.0268072
3272.61	0.0259689
3282.25	0.0273325
3291.89	0.0274499
3301.53	0.0258712
3311.18	0.0253045
3320.82	0.027027
3330.46	0.0262745
3340.1	0.0281605
3349.75	0.0283457
3359.39	0.0270845
3369.03	0.0265048
3378.67	0.0255678
3388.32	0.0281741
3397.96	0.0294061
3407.6	0.0287491
3417.24	0.0308041
3426.89	0.0336092
3436.53	0.0387702
3446.17	0.0396744
3455.81	0.0421996
3465.45	0.0443989
3475.1	0.03953
3484.74	0.0354407
3494.38	0.0345489
3504.02	0.0303876
3513.67	0.028245
3523.31	0.0237412
3532.95	0.025621
3542.59	0.0216663
3552.24	0.0307021
3561.88	0.0294262
3571.52	0.0354853
3581.16	0.0383841
3590.8	0.0387957
3600.45	0.0274078
3610.09	0.0223706
3619.73	0.0180971
3629.37	0.0208956
3639.02	0.017865
3648.66	0.0249017
3658.3	0.0182298
3667.94	0.021177
3677.59	0.0189526
3687.23	0.0166765
3696.87	0.0192559
3706.51	0.0210769
3716.16	0.0176225
3725.8	0.0191339
3735.44	0.0198394
3745.08	0.0150302
3754.72	0.0190456
3764.37	0.0166009
3774.01	0.0219354
3783.65	0.0176355
3793.29	0.0130272
3802.94	0.0169969
3812.58	0.0196399
3822.22	0.0182361
3831.86	0.0151353
3841.51	0.0156292
3851.15	0.0231073
3860.79	0.0151166
3870.43	0.0189905
3880.07	0.0201192
3889.72	0.0162651
3899.36	0.0128734
3909	0.0148023
3918.64	0.0146186
3928.29	0.0115477
3937.93	0.0172704
3947.57	0.0159729
3957.21	0.0168148
3966.86	0.0152396
3976.5	0.0161498
3986.14	0.0142399
3995.78	0.0188089
