Measurement: Infrared, Infrared Data Processed
Mineral: Elbaite
Rruff sample: R070077
Ideal chemistry: Na(Al_1.5_Li_1.5_)Al_6_(Si_6_O_18_)(BO_3_)_3_(OH)_3_OH
Locality: Canary mine, Lundazi area of eastern Zambia
Source: Tommy Wu
Description: Green crystal fragments
x	intensity
374.123	0.212776
383.765	0.21411
393.407	0.202032
403.05	0.207378
412.692	0.211574
422.334	0.223647
431.976	0.224104
441.619	0.230162
451.261	0.230924
460.904	0.223181
470.546	0.222333
480.188	0.224362
489.83	0.229117
499.473	0.230286
509.115	0.220652
518.758	0.205469
528.4	0.189005
538.042	0.176181
547.684	0.171164
557.327	0.163705
566.969	0.154527
576.611	0.152474
586.254	0.151829
595.896	0.141365
605.538	0.134914
615.181	0.137623
624.823	0.137378
634.466	0.12411
644.108	0.115947
653.75	0.113944
663.393	0.107059
673.035	0.0981918
682.677	0.0959791
692.319	0.102796
701.962	0.115076
711.604	0.120224
721.246	0.107776
730.889	0.0882486
740.531	0.081992
750.173	0.0912427
759.816	0.0889579
769.458	0.0934546
779.101	0.105988
788.743	0.0967936
798.385	0.074486
808.028	0.0615268
817.67	0.0611558
827.312	0.0647116
836.955	0.0702733
846.597	0.0749877
856.239	0.0726548
865.881	0.0692815
875.524	0.0719277
885.166	0.0795948
894.808	0.0890594
904.451	0.100486
914.093	0.116572
923.736	0.135713
933.378	0.153407
943.02	0.171847
952.663	0.188321
962.305	0.197708
971.947	0.201079
981.59	0.198819
991.232	0.188027
1000.87	0.173867
1010.52	0.167271
1020.16	0.166237
1029.8	0.154772
1039.44	0.140549
1049.09	0.13285
1058.73	0.119784
1068.37	0.0997606
1078.01	0.0911224
1087.65	0.105448
1097.3	0.115617
1106.94	0.107117
1116.58	0.0871298
1126.22	0.0652857
1135.87	0.0485645
1145.51	0.0394907
1155.15	0.0343288
1164.79	0.0320262
1174.44	0.0314439
1184.08	0.0322926
1193.72	0.0339437
1203.36	0.0379903
1213.01	0.0474649
1222.65	0.0616241
1232.29	0.0660851
1241.93	0.0665795
1251.58	0.0746427
1261.22	0.0830365
1270.86	0.0893656
1280.5	0.0963086
1290.14	0.0994193
1299.79	0.0939461
1309.43	0.085392
1319.07	0.076626
1328.71	0.0712408
1338.36	0.0695366
1348	0.0675007
1357.64	0.0589903
1367.28	0.0490295
1376.92	0.0429809
1386.57	0.0417115
1396.21	0.0367987
1405.85	0.0300421
1415.49	0.025499
1425.14	0.0237785
1434.78	0.0233866
1444.42	0.0202696
1454.06	0.0174789
1463.71	0.0159564
1473.35	0.0152489
1482.99	0.0149862
1492.63	0.0146757
1502.28	0.0144836
1511.92	0.0141244
1521.56	0.0137383
1531.2	0.0136905
1540.85	0.0133393
1550.49	0.0135963
1560.13	0.0135264
1569.77	0.0135365
1579.41	0.0135993
1589.06	0.0137928
1598.7	0.0138874
1608.34	0.0143561
1617.98	0.0146868
1627.63	0.0151254
1637.27	0.0152036
1646.91	0.014598
1656.55	0.014045
1666.19	0.0133629
1675.84	0.0124926
1685.48	0.0115171
1695.12	0.0108286
1704.77	0.0101192
1714.41	0.00962365
1724.05	0.00873025
1733.69	0.0077914
1743.33	0.00736783
1752.98	0.00753197
1762.62	0.00754256
1772.26	0.00737884
1781.9	0.00720549
1791.55	0.00725262
1801.19	0.00725714
1810.83	0.0069748
1820.47	0.00656365
1830.12	0.00662989
1839.76	0.00641962
1849.4	0.00604828
1859.04	0.00591549
1868.68	0.00537187
1878.33	0.00543418
1887.97	0.00524699
1897.61	0.00502415
1907.25	0.00466576
1916.9	0.00453713
1926.54	0.00397664
1936.18	0.00362179
1945.82	0.00375387
1955.46	0.00245029
1965.11	0.00222071
1974.75	0.00229478
1984.39	0.00344041
1994.04	0.00338728
2003.68	0.00192117
2013.32	0.00271419
2022.96	0.00108583
2032.6	0.00135272
2042.25	0.00296706
2051.89	0.00239292
2061.53	0.00115046
2071.17	0.00141189
2080.82	0.00189073
2090.46	0.00152856
2100.1	0.00210518
2109.74	0.00216097
2119.39	0.00158979
2129.03	0.00088529
2138.67	0.000698539
2148.31	0.000976347
2157.95	0.000646117
2167.6	0.00370795
2177.24	0.00137189
2186.88	0.00263714
2196.52	0.00200649
2206.17	0.0010503
2215.81	0.00213534
2225.45	0.00157351
2235.09	0.00182048
2244.74	0.00234276
2254.38	0.00225888
2264.02	0.00275978
2273.66	0.00305284
2283.3	0.00373953
2292.95	0.00302776
2302.59	0.00300129
2312.23	0.00323822
2321.87	0.00388331
2331.52	0.00215756
2341.16	0.00251918
2350.8	0.00260869
2360.44	0.0022602
2370.09	0.00202184
2379.73	0.00272272
2389.37	0.00226029
2399.01	0.00275501
2408.66	0.00284374
2418.3	0.00305529
2427.94	0.00283673
2437.58	0.00266341
2447.22	0.00340251
2456.87	0.00274041
2466.51	0.00276554
2476.15	0.00248183
2485.79	0.00265798
2495.44	0.00218843
2505.08	0.00173108
2514.72	0.00210538
2524.36	0.00168254
2534.01	0.00168415
2543.65	0.00115312
2553.29	0.00107
2562.93	0.00104921
2572.57	0.00133083
2582.22	0.00127048
2591.86	0.00164415
2601.5	0.00167025
2611.14	0.00221978
2620.79	0.00258406
2630.43	0.00242911
2640.07	0.00296528
2649.71	0.00290079
2659.36	0.00310483
2669	0.00253639
2678.64	0.00274966
2688.28	0.00256529
2697.93	0.002952
2707.57	0.0035035
2717.21	0.00404747
2726.85	0.00422507
2736.49	0.00476465
2746.14	0.00499956
2755.78	0.00531378
2765.42	0.00543551
2775.06	0.00561512
2784.71	0.00624196
2794.35	0.00679527
2803.99	0.00688766
2813.63	0.00756626
2823.28	0.00771057
2832.92	0.00858461
2842.56	0.00891833
2852.2	0.00899203
2861.84	0.00870713
2871.49	0.00935483
2881.13	0.0100862
2890.77	0.0100734
2900.41	0.0104968
2910.06	0.0112736
2919.7	0.0113761
2929.34	0.0107246
2938.98	0.0107762
2948.62	0.0110284
2958.27	0.0110559
2967.91	0.0122954
2977.55	0.0123982
2987.2	0.0130168
2996.84	0.0135283
3006.48	0.0133019
3016.12	0.0138368
3025.76	0.0144413
3035.41	0.014575
3045.05	0.0151963
3054.69	0.0151029
3064.33	0.0156362
3073.98	0.0157244
3083.62	0.0162739
3093.26	0.0164585
3102.9	0.0166415
3112.55	0.0171585
3122.19	0.0166517
3131.83	0.0170698
3141.47	0.0171262
3151.11	0.0168279
3160.76	0.0168021
3170.4	0.0166293
3180.04	0.0168802
3189.68	0.0167897
3199.33	0.0163555
3208.97	0.0163769
3218.61	0.0161229
3228.25	0.0157043
3237.9	0.0160665
3247.54	0.0156252
3257.18	0.0149387
3266.82	0.0152991
3276.47	0.01518
3286.11	0.0148707
3295.75	0.0148324
3305.39	0.0146693
3315.03	0.0149173
3324.68	0.0154981
3334.32	0.0147588
3343.96	0.0148851
3353.6	0.015322
3363.25	0.0146666
3372.89	0.0143594
3382.53	0.014535
3392.17	0.0141067
3401.82	0.0140307
3411.46	0.0139874
3421.1	0.0145991
3430.74	0.014411
3440.39	0.015385
3450.03	0.01519
3459.67	0.0164961
3469.31	0.0179689
3478.95	0.0188292
3488.6	0.0200211
3498.24	0.0189729
3507.88	0.0162505
3517.52	0.0133117
3527.17	0.0118247
3536.81	0.0111424
3546.45	0.0116957
3556.09	0.0138836
3565.74	0.0157853
3575.38	0.0139134
3585.02	0.0113989
3594.66	0.0108846
3604.3	0.00728878
3613.95	0.00319784
3623.59	0.00202243
3633.23	0.00141608
3642.87	0.00185548
3652.52	0.00208915
3662.16	0.00109632
3671.8	0.00163906
3681.44	0.00156876
3691.09	0.00103906
3700.73	0.000792009
3710.37	0.00106695
3720.01	0.00167108
3729.66	0.00136348
3739.3	0.00243913
3748.94	0.00200186
3758.58	0.0026497
3768.22	0.00238565
3777.87	0.00226716
3787.51	0.00260211
3797.15	0.00333825
3806.79	0.00263951
3816.44	0.00316715
3826.08	0.00375338
3835.72	0.00370966
3845.36	0.00346765
3855.01	0.00385262
3864.65	0.004139
3874.29	0.00373667
3883.93	0.00473539
3893.57	0.00379663
3903.22	0.00519292
3912.86	0.00426472
3922.5	0.00470294
3932.14	0.00415626
3941.79	0.00508734
3951.43	0.00591988
3961.07	0.0052491
3970.71	0.0057579
3980.36	0.00585647
3990	0.00555812
3999.64	0.00539737
