Measurement: Infrared, Infrared Data Processed
Mineral: Elbaite
Rruff sample: R050260
Ideal chemistry: Na(Al_1.5_Li_1.5_)Al_6_(Si_6_O_18_)(BO_3_)_3_(OH)_3_OH
Locality: Minas Gerais, Brazil
Source: Marcus Origlieri
Description: Greenish-gray prismatic single crystal
Measured chemistry: (Na_0.76_[box]_0.17_Ca_0.07_)_Σ=1_(Al_1.67_Li_0.97_Mn_0.36_)_Σ=3_Al_6.00_(B_1.00_O_3_)_3_Si_6.00_O_18_((OH)_3.40_F_0.60_)_Σ=4_; B assumed by stoichiometry; OH estimated by charge balance
x	intensity
50.1401	0.000468151
52.0686	0.00179945
53.9971	0.00698721
55.9255	0.0118509
57.854	0.0135482
59.7825	0.00744174
61.7109	0.0039729
63.6394	0.00664016
65.5679	0.00902259
67.4963	0.00870045
69.4248	0.00917371
71.3533	0.0107382
73.2817	0.0105976
75.2102	0.0105754
77.1387	0.0111068
79.0671	0.0116098
80.9956	0.0135155
82.9241	0.014641
84.8525	0.0150509
86.781	0.0155626
88.7095	0.0153984
90.6379	0.0148568
92.5664	0.0148087
94.4948	0.0165875
96.4233	0.0175274
98.3518	0.0180966
100.28	0.019206
102.209	0.0203639
104.137	0.0209252
106.066	0.0212154
107.994	0.0216295
109.923	0.0224633
111.851	0.0235522
113.779	0.0244403
115.708	0.0255917
117.636	0.0265535
119.565	0.0278451
121.493	0.0285591
123.422	0.0289158
125.35	0.0301154
127.279	0.0313833
129.207	0.0317018
131.136	0.0319973
133.064	0.0330894
134.993	0.0335804
136.921	0.033468
138.85	0.0335619
140.778	0.0336529
142.707	0.0336181
144.635	0.0335154
146.563	0.0334953
148.492	0.0341509
150.42	0.0346223
152.349	0.0353341
154.277	0.0364399
156.206	0.037238
158.134	0.0379638
160.063	0.0382889
161.991	0.0380681
163.92	0.0382215
165.848	0.0389348
167.777	0.0389124
169.705	0.0390569
171.633	0.0391774
173.562	0.0394775
175.49	0.0398639
177.419	0.0401055
179.347	0.0407032
181.276	0.0416676
183.204	0.042257
185.133	0.0422915
187.061	0.0426523
188.99	0.0435892
190.918	0.0443894
192.847	0.0454932
194.775	0.0468131
196.704	0.0476533
198.632	0.0484361
200.56	0.0493273
202.489	0.0505399
204.417	0.0511125
206.346	0.0518583
208.274	0.0527615
210.203	0.0535325
212.131	0.0542044
214.06	0.0549007
215.988	0.055668
217.917	0.056716
219.845	0.0569767
221.774	0.0570884
223.702	0.058009
225.631	0.0592191
227.559	0.0597873
229.488	0.0596108
231.416	0.059387
233.344	0.0590352
235.273	0.0587013
237.201	0.0589765
239.13	0.0590372
241.058	0.0591272
242.987	0.0596674
244.915	0.0605201
246.844	0.0613119
248.772	0.0620187
250.701	0.0625428
252.629	0.0632281
254.558	0.0633547
256.486	0.0627441
258.414	0.06218
260.343	0.0617533
262.271	0.0614425
264.2	0.0615516
266.128	0.0620824
268.057	0.062719
269.985	0.0634151
271.914	0.0642217
273.842	0.0650234
275.771	0.0656106
277.699	0.0659903
279.628	0.0661431
281.556	0.0665547
283.485	0.0669872
285.413	0.0671292
287.341	0.0672513
289.27	0.0674729
291.198	0.0678723
293.127	0.0680824
295.055	0.0685205
296.984	0.0691802
298.912	0.0701073
300.841	0.070982
302.769	0.0716989
304.698	0.0717961
306.626	0.0720219
308.555	0.0720939
310.483	0.071704
312.411	0.0713855
314.34	0.0715063
316.269	0.0717555
318.197	0.0723102
320.125	0.0733387
322.054	0.0746875
323.982	0.0754371
325.911	0.0756721
327.839	0.0755169
329.768	0.0744606
331.696	0.0733748
333.625	0.073123
335.553	0.0734621
337.482	0.0742859
339.41	0.0753298
341.339	0.0765145
343.267	0.0775787
345.195	0.0781227
347.124	0.0781129
349.052	0.0785521
350.981	0.0787954
352.909	0.078586
354.838	0.0784239
356.766	0.0785556
358.695	0.0790427
360.623	0.0797509
362.552	0.0806502
364.48	0.0816184
366.409	0.0826888
368.337	0.0837116
370.265	0.0846382
372.194	0.0856692
374.122	0.086018
376.051	0.0852095
377.979	0.0843774
379.908	0.0839581
381.836	0.0837685
383.765	0.083822
385.693	0.0835689
387.622	0.0835994
389.55	0.0837322
391.479	0.0837633
393.407	0.084254
395.336	0.0851348
397.264	0.0857975
399.192	0.0864772
401.121	0.0870646
403.049	0.0875787
404.978	0.0879638
406.906	0.0882458
408.835	0.0886791
410.763	0.0893947
412.692	0.0900844
414.62	0.0912083
416.549	0.0923741
418.477	0.0935081
420.406	0.0943272
422.334	0.0951382
424.262	0.0960277
426.191	0.0967029
428.12	0.0968853
430.048	0.0970279
431.976	0.0973254
433.905	0.0978585
435.833	0.0983487
437.762	0.0990773
439.69	0.100076
441.619	0.101102
443.547	0.10145
445.476	0.102112
447.404	0.102993
449.333	0.103412
451.261	0.103694
453.19	0.103909
455.118	0.10399
457.046	0.104082
458.975	0.103587
460.903	0.10299
462.832	0.103358
464.76	0.10404
466.689	0.104336
468.617	0.10458
470.546	0.104797
472.474	0.105134
474.403	0.105574
476.331	0.105967
478.26	0.106267
480.188	0.106264
482.116	0.106484
484.045	0.107122
485.974	0.107528
487.902	0.107809
489.83	0.108037
491.759	0.108339
493.687	0.108658
495.616	0.109218
497.544	0.109968
499.473	0.10988
501.401	0.10972
503.33	0.109561
505.258	0.109273
507.187	0.108828
509.115	0.107455
511.043	0.106275
512.972	0.105526
514.9	0.104508
516.829	0.104073
518.757	0.103774
520.686	0.103113
522.614	0.102484
524.543	0.101597
526.471	0.10074
528.4	0.100286
530.328	0.0996485
532.257	0.09847
534.185	0.0976922
536.114	0.096915
538.042	0.0960445
539.971	0.0953036
541.899	0.0944598
543.827	0.0942542
545.756	0.0941136
547.684	0.0937717
549.613	0.093647
551.541	0.0932032
553.47	0.0924392
555.398	0.0915559
557.327	0.0905781
559.255	0.0902334
561.184	0.0899182
563.112	0.0895902
565.041	0.0892718
566.969	0.0889102
568.898	0.0887313
570.826	0.0884106
572.755	0.0880163
574.683	0.088032
576.611	0.0881496
578.54	0.0880342
580.468	0.0879065
582.397	0.0879532
584.325	0.087854
586.254	0.0878526
588.182	0.0873719
590.111	0.0866677
592.039	0.0856945
593.968	0.0847459
595.896	0.0837586
597.824	0.0822288
599.753	0.0806532
601.682	0.07953
603.61	0.0786842
605.538	0.0772492
607.467	0.0757586
609.395	0.0748975
611.324	0.0742077
613.252	0.0745892
615.181	0.0757953
617.109	0.0759325
619.038	0.07524
620.966	0.0758387
622.894	0.0764587
624.823	0.0768751
626.751	0.0775184
628.68	0.0781504
630.608	0.0786863
632.537	0.0792424
634.465	0.078905
636.394	0.0781104
638.322	0.0773371
640.251	0.0763383
642.179	0.075162
644.108	0.0743443
646.036	0.0737375
647.965	0.0733386
649.893	0.0727746
651.822	0.0725429
653.75	0.0720987
655.678	0.0715078
657.607	0.0712617
659.535	0.0712417
661.464	0.070485
663.392	0.0695886
665.321	0.0688763
667.249	0.0678152
669.178	0.0667589
671.106	0.0661852
673.035	0.0656098
674.963	0.0649887
676.892	0.0650867
678.82	0.0657839
680.749	0.0659526
682.677	0.0654346
684.606	0.0648036
686.534	0.0649575
688.462	0.0661419
690.391	0.0679562
692.319	0.0691993
694.248	0.0695937
696.176	0.0707855
698.105	0.0735708
700.033	0.0768689
