Measurement: Infrared, Infrared Data Processed
Mineral: Elbaite
Rruff sample: R050119
Ideal chemistry: Na(Al_1.5_Li_1.5_)Al_6_(Si_6_O_18_)(BO_3_)_3_(OH)_3_OH
Locality: Cruziero mine, San Jose, Minas Gerais, Brazil
Source: Carlos and Paulo Vasconcelos
Description: Red fragment
Measured chemistry: (Na_0.90_Ca_0.10_)(Al_0.56_Li_0.38_Mn_0.06_)_3_Al_6_(BO_3_)_3_(Si_0.89_B_0.11_)_6_O_18_(OH)_4_
x	intensity
399.193	0
408.835	0.156579
418.477	0.16541
428.12	0.175336
437.762	0.177942
447.404	0.188152
457.047	0.189794
466.689	0.187296
476.331	0.189298
485.974	0.192709
495.616	0.191296
505.258	0.187229
514.901	0.175321
524.543	0.164589
534.185	0.15623
543.828	0.145676
553.47	0.136752
563.112	0.131141
572.755	0.127387
582.397	0.122164
592.039	0.116744
601.682	0.106417
611.324	0.0952797
620.966	0.0899399
630.609	0.0895374
640.251	0.0807888
649.893	0.0670513
659.536	0.0608411
669.178	0.0548462
678.82	0.050159
688.463	0.0482921
698.105	0.0577138
707.747	0.0734502
717.39	0.0779671
727.032	0.0618976
736.674	0.0448141
746.317	0.0419059
755.959	0.0435666
765.601	0.0465778
775.244	0.0635332
784.886	0.0736518
794.528	0.0578647
804.171	0.0334066
813.813	0.0247647
823.455	0.0269321
833.098	0.030545
842.74	0.0321847
852.382	0.036604
862.025	0.0441175
871.667	0.0500782
881.309	0.0527585
890.952	0.057528
900.594	0.0591508
910.236	0.0668172
919.879	0.0846514
929.521	0.10676
939.163	0.129702
948.806	0.153169
958.448	0.174637
968.09	0.188744
977.733	0.191492
987.375	0.186048
997.017	0.173174
1006.66	0.154448
1016.3	0.142634
1025.94	0.139975
1035.59	0.129842
1045.23	0.113551
1054.87	0.104549
1064.51	0.0950137
1074.16	0.0874834
1083.8	0.0830505
1093.44	0.0892965
1103.08	0.093018
1112.72	0.0853226
1122.37	0.0676936
1132.01	0.0500454
1141.65	0.034138
1151.3	0.0201203
1160.94	0.0113299
1170.58	0.00938064
1180.22	0.0108477
1189.86	0.0148323
1199.51	0.0151729
1209.15	0.0157573
1218.79	0.0200502
1228.43	0.0277406
1238.08	0.0419872
1247.72	0.057082
1257.36	0.0660251
1267	0.0758394
1276.64	0.0858944
1286.29	0.0863398
1295.93	0.0831593
1305.57	0.0780645
1315.21	0.073443
1324.86	0.0671421
1334.5	0.0608363
1344.14	0.0618145
1353.78	0.0657666
1363.43	0.0592864
1373.07	0.0478855
1382.71	0.0409921
1392.35	0.0354463
1401.99	0.0277168
1411.64	0.021857
1421.28	0.0169254
1430.92	0.0130397
1440.57	0.0121492
1450.21	0.0101136
1459.85	0.00971829
1469.49	0.0076649
1479.13	0.00498325
1488.78	0.0038017
1498.42	0.00373277
1508.06	0.00399393
1517.7	0.00317945
1527.35	0.00275634
1536.99	0.00248452
1546.63	0.0028052
1556.27	0.00266607
1565.91	0.0031767
1575.56	0.00340729
1585.2	0.00335156
1594.84	0.00391542
1604.48	0.00419151
1614.13	0.00412364
1623.77	0.00390034
1633.41	0.00407178
1643.05	0.00412015
1652.7	0.00374614
1662.34	0.00467003
1671.98	0.00409098
1681.62	0.00417564
1691.27	0.00367749
1700.91	0.00345297
1710.55	0.00324977
1720.19	0.00318513
1729.84	0.0037138
1739.48	0.00296905
1749.12	0.00277408
1758.76	0.0032258
1768.4	0.0031712
1778.05	0.00272558
1787.69	0.00371198
1797.33	0.00306111
1806.97	0.00317002
1816.62	0.00298307
1826.26	0.0034142
1835.9	0.00270166
1845.54	0.00227342
1855.18	0.00280911
1864.83	0.00217794
1874.47	0.00241634
1884.11	0.00241834
1893.75	0.00156434
1903.4	0.00161756
1913.04	0.00166862
1922.68	-0.000118554
1932.32	-0.000412172
1941.97	-0.00164065
1951.61	-0.00235749
1961.25	-0.0019964
1970.89	-0.00512713
1980.54	-0.00197676
1990.18	-0.00169927
1999.82	-0.00256769
2009.46	-0.00363864
2019.11	-0.00421026
2028.75	-0.00371035
2038.39	-0.00173066
2048.03	-0.00154885
2057.67	-0.000565242
2067.32	2.06788e-05
2076.96	0.000255334
2086.6	-0.00036055
2096.24	0.000608841
2105.89	0.00125909
2115.53	4.45151e-05
2125.17	0.0001511
2134.81	-0.0007861
2144.45	-0.00360762
2154.1	-0.00558759
2163.74	0.00196004
2173.38	0.000831036
2183.02	-0.00119851
2192.67	0.00154378
2202.31	-0.000319855
2211.95	-0.00045083
2221.59	0.000877489
2231.24	0.00139142
2240.88	0.00291739
2250.52	0.00191772
2260.16	0.00305681
2269.8	0.00442248
2279.45	0.00600662
2289.09	0.00623464
2298.73	0.00584364
2308.38	0.00725496
2318.02	0.0069235
2327.66	0.00665226
2337.3	0.00610817
2346.94	0.00619359
2356.59	0.00589445
2366.23	0.00604321
2375.87	0.00588436
2385.51	0.00585996
2395.16	0.00548785
2404.8	0.00595002
2414.44	0.00542988
2424.08	0.00553595
2433.72	0.00597487
2443.37	0.00559971
2453.01	0.00568959
2462.65	0.00477183
2472.29	0.00450507
2481.94	0.00423299
2491.58	0.00362245
2501.22	0.00354379
2510.86	0.00298242
2520.51	0.00424274
2530.15	0.00339561
2539.79	0.00436729
2549.43	0.00409406
2559.07	0.00291317
2568.72	0.00413086
2578.36	0.00330345
2588	0.00402959
2597.64	0.00312434
2607.29	0.00486532
2616.93	0.00497363
2626.57	0.00540919
2636.21	0.00548369
2645.86	0.00552308
2655.5	0.00580914
2665.14	0.00546528
2674.78	0.0053189
2684.43	0.00578626
2694.07	0.00550434
2703.71	0.0053874
2713.35	0.00572191
2722.99	0.00577591
2732.64	0.00578395
2742.28	0.00527378
2751.92	0.00627857
2761.56	0.0056337
2771.21	0.00608176
2780.85	0.00648102
2790.49	0.00645414
2800.13	0.00671007
2809.78	0.00660431
2819.42	0.00678814
2829.06	0.00718613
2838.7	0.00668339
2848.34	0.00679095
2857.99	0.00586558
2867.63	0.00586265
2877.27	0.00570308
2886.91	0.00637919
2896.56	0.00703315
2906.2	0.00617074
2915.84	0.00580639
2925.48	0.00508668
2935.13	0.00515359
2944.77	0.00662925
2954.41	0.00602772
2964.05	0.00577236
2973.7	0.00646885
2983.34	0.00701299
2992.98	0.00722461
3002.62	0.00656055
3012.26	0.00685116
3021.91	0.00605097
3031.55	0.00734159
3041.19	0.00747295
3050.83	0.00671159
3060.48	0.00677514
3070.12	0.00774068
3079.76	0.00667384
3089.4	0.00778379
3099.05	0.00729777
3108.69	0.00774963
3118.33	0.00710466
3127.97	0.00670981
3137.61	0.00873877
3147.26	0.0105315
3156.9	0.0084688
3166.54	0.00914013
3176.18	0.00821522
3185.83	0.00935044
3195.47	0.00770796
3205.11	0.00868309
3214.75	0.00875984
3224.4	0.00719488
3234.04	0.00890498
3243.68	0.00910938
3253.32	0.0102466
3262.97	0.0109316
3272.61	0.00862919
3282.25	0.0112827
3291.89	0.00910789
3301.53	0.0120084
3311.18	0.0099089
3320.82	0.0109905
3330.46	0.0111821
3340.1	0.0110419
3349.75	0.0105775
3359.39	0.0113749
3369.03	0.0118274
3378.67	0.012688
3388.32	0.0114511
3397.96	0.0141588
3407.6	0.013202
3417.24	0.0130798
3426.89	0.0148234
3436.53	0.0177817
3446.17	0.0205518
3455.81	0.0259557
3465.45	0.0258797
3475.1	0.0250116
3484.74	0.0200565
3494.38	0.0167421
3504.02	0.0131162
3513.67	0.00966547
3523.31	0.0123287
3532.95	0.00976259
3542.59	0.0107575
3552.24	0.0112642
3561.88	0.0150657
3571.52	0.0169328
3581.16	0.0226449
3590.8	0.0219125
3600.45	0.0143062
3610.09	0.00991694
3619.73	0.00684501
3629.37	0.00412929
3639.02	0.0063108
3648.66	0.00856975
3658.3	0.00774648
3667.94	0.00621076
3677.59	0.00409814
3687.23	0.00609002
3696.87	0.00525153
3706.51	0.00553211
3716.16	0.00599111
3725.8	0.00290653
3735.44	0.00657674
3745.08	0.0041856
3754.72	0.00497254
3764.37	0.00648749
3774.01	0.00610722
3783.65	0.00513935
3793.29	0.00558407
3802.94	0.0070242
3812.58	0.00549308
3822.22	0.00752871
3831.86	0.00827246
3841.51	0.00802098
3851.15	0.00468692
3860.79	0.00645722
3870.43	0.00539999
3880.07	0.0056538
3889.72	0.0060035
3899.36	0.00565302
3909	0.00700583
3918.64	0.00648301
3928.29	0.00418352
3937.93	0.00598536
3947.57	0.00821761
3957.21	0.00753394
3966.86	0.00685881
3976.5	0.0090189
3986.14	0.00783939
3995.78	0.00898241
