Measurement: Infrared, Infrared Data Processed
Mineral: Enargite
Rruff sample: R050435
Ideal chemistry: Cu_3_AsS_4_
Locality: Longfellow mine, Red Mountain Pass, Ouray, Colorado, USA
Source: University of Arizona Mineral Museum
Description: Grayish black prismatic crystals
Measured chemistry: Cu_2.97_As_0.95_Sb_0.02_S_4_
x	intensity
399.193	0.155684
408.835	0.179033
418.477	0.235001
428.12	0.274824
437.762	0.296101
447.404	0.31356
457.047	0.326802
466.689	0.340639
476.331	0.348886
485.974	0.355092
495.616	0.364506
505.258	0.375452
514.901	0.385004
524.543	0.392278
534.185	0.39628
543.828	0.403526
553.47	0.408224
563.112	0.414487
572.755	0.42358
582.397	0.43395
592.039	0.443329
601.682	0.446644
611.324	0.438991
620.966	0.439137
630.609	0.440311
640.251	0.435793
649.893	0.439182
659.536	0.448606
669.178	0.453199
678.82	0.454174
688.463	0.461012
698.105	0.471002
707.747	0.478757
717.39	0.484427
727.032	0.490571
736.674	0.494685
746.317	0.499615
755.959	0.508799
765.601	0.516246
775.244	0.520058
784.886	0.524847
794.528	0.528937
804.171	0.531401
813.813	0.534155
823.455	0.534539
833.098	0.535619
842.74	0.537517
852.382	0.539484
862.025	0.543233
871.667	0.544691
881.309	0.540088
890.952	0.542095
900.594	0.545968
910.236	0.551332
919.879	0.556371
929.521	0.563092
939.163	0.57069
948.806	0.578549
958.448	0.587981
968.09	0.596424
977.733	0.60284
987.375	0.609325
997.017	0.618162
1006.66	0.629447
1016.3	0.640664
1025.94	0.646996
1035.59	0.658266
1045.23	0.664984
1054.87	0.668106
1064.51	0.670559
1074.16	0.669288
1083.8	0.664895
1093.44	0.659586
1103.08	0.655655
1112.72	0.650045
1122.37	0.640541
1132.01	0.630511
1141.65	0.627174
1151.3	0.620393
1160.94	0.609988
1170.58	0.598784
1180.22	0.584187
1189.86	0.569645
1199.51	0.55819
1209.15	0.551303
1218.79	0.550113
1228.43	0.553039
1238.08	0.561199
1247.72	0.571577
1257.36	0.579995
1267	0.588092
1276.64	0.595339
1286.29	0.603339
1295.93	0.609189
1305.57	0.615372
1315.21	0.62194
1324.86	0.628156
1334.5	0.633884
1344.14	0.640445
1353.78	0.646648
1363.43	0.651967
1373.07	0.65892
1382.71	0.663168
1392.35	0.669032
1401.99	0.675631
1411.64	0.678179
1421.28	0.679081
1430.92	0.678314
1440.57	0.686333
1450.21	0.688846
1459.85	0.686807
1469.49	0.683743
1479.13	0.68285
1488.78	0.688769
1498.42	0.691454
1508.06	0.690405
1517.7	0.69208
1527.35	0.696339
1536.99	0.697684
1546.63	0.70179
1556.27	0.704712
1565.91	0.708619
1575.56	0.713223
1585.2	0.716184
1594.84	0.719497
1604.48	0.723464
1614.13	0.72742
1623.77	0.728683
1633.41	0.730366
1643.05	0.731217
1652.7	0.732005
1662.34	0.732262
1671.98	0.732362
1681.62	0.733293
1691.27	0.736422
1700.91	0.738332
1710.55	0.741891
1720.19	0.744904
1729.84	0.747219
1739.48	0.749681
1749.12	0.749809
1758.76	0.75236
1768.4	0.755186
1778.05	0.755952
1787.69	0.757712
1797.33	0.76158
1806.97	0.762707
1816.62	0.765068
1826.26	0.766358
1835.9	0.767432
1845.54	0.769691
1855.18	0.772188
1864.83	0.774764
1874.47	0.774399
1884.11	0.776799
1893.75	0.778761
1903.4	0.779039
1913.04	0.782255
1922.68	0.781752
1932.32	0.781899
1941.97	0.772613
1951.61	0.774811
1961.25	0.76982
1970.89	0.76001
1980.54	0.767573
1990.18	0.772054
1999.82	0.778617
2009.46	0.773375
2019.11	0.772249
2028.75	0.772427
2038.39	0.777915
2048.03	0.792491
2057.67	0.806171
2067.32	0.810418
2076.96	0.818993
2086.6	0.820843
2096.24	0.822213
2105.89	0.826332
2115.53	0.829102
2125.17	0.82969
2134.81	0.823141
2144.45	0.819008
2154.1	0.804747
2163.74	0.808576
2173.38	0.816756
2183.02	0.814898
2192.67	0.82307
2202.31	0.83561
2211.95	0.838005
2221.59	0.843049
2231.24	0.848173
2240.88	0.857104
2250.52	0.856267
2260.16	0.868124
2269.8	0.873188
2279.45	0.88001
2289.09	0.886653
2298.73	0.893717
2308.38	0.897956
2318.02	0.901573
2327.66	0.90544
2337.3	0.909327
2346.94	0.909254
2356.59	0.914117
2366.23	0.915378
2375.87	0.914774
2385.51	0.913525
2395.16	0.914958
2404.8	0.918749
2414.44	0.920953
2424.08	0.922023
2433.72	0.925501
2443.37	0.926186
2453.01	0.930676
2462.65	0.932998
2472.29	0.935532
2481.94	0.936226
2491.58	0.940427
2501.22	0.942213
2510.86	0.94923
2520.51	0.946813
2530.15	0.951034
2539.79	0.956444
2549.43	0.957179
2559.07	0.956129
2568.72	0.959577
2578.36	0.96468
2588	0.9698
2597.64	0.971008
2607.29	0.974951
2616.93	0.978539
2626.57	0.984817
2636.21	0.986595
2645.86	0.991569
2655.5	0.99485
2665.14	0.997592
2674.78	0.999437
2684.43	1.00205
2694.07	1.00575
2703.71	1.00725
2713.35	1.01147
2722.99	1.01349
2732.64	1.01747
2742.28	1.01936
2751.92	1.02265
2761.56	1.02398
2771.21	1.02681
2780.85	1.03157
2790.49	1.0319
2800.13	1.03699
2809.78	1.03704
2819.42	1.04149
2829.06	1.04679
2838.7	1.05109
2848.34	1.0521
2857.99	1.04924
2867.63	1.05509
2877.27	1.05826
2886.91	1.06261
2896.56	1.06715
2906.2	1.07334
2915.84	1.07388
2925.48	1.0659
2935.13	1.06135
2944.77	1.064
2954.41	1.06726
2964.05	1.06633
2973.7	1.07081
2983.34	1.07176
2992.98	1.07479
3002.62	1.07639
3012.26	1.07994
3021.91	1.08117
3031.55	1.08486
3041.19	1.08996
3050.83	1.09059
3060.48	1.09115
3070.12	1.10036
3079.76	1.09683
3089.4	1.10274
3099.05	1.10258
3108.69	1.10799
3118.33	1.11118
3127.97	1.11045
3137.61	1.11546
3147.26	1.11635
3156.9	1.11796
3166.54	1.12157
3176.18	1.12447
3185.83	1.12405
3195.47	1.1281
3205.11	1.13109
3214.75	1.12902
3224.4	1.13378
3234.04	1.13067
3243.68	1.136
3253.32	1.13922
3262.97	1.1364
3272.61	1.14577
3282.25	1.14578
3291.89	1.14521
3301.53	1.14617
3311.18	1.14855
3320.82	1.14679
3330.46	1.14943
3340.1	1.15004
3349.75	1.15098
3359.39	1.14857
3369.03	1.15127
3378.67	1.15485
3388.32	1.15125
3397.96	1.15129
3407.6	1.1536
3417.24	1.1525
3426.89	1.15768
3436.53	1.15354
3446.17	1.15709
3455.81	1.15499
3465.45	1.15851
3475.1	1.15862
3484.74	1.15509
3494.38	1.16261
3504.02	1.16212
3513.67	1.15514
3523.31	1.15974
3532.95	1.15735
3542.59	1.16455
3552.24	1.16093
3561.88	1.16135
3571.52	1.16831
3581.16	1.17006
3590.8	1.1655
3600.45	1.16826
3610.09	1.16756
3619.73	1.17916
3629.37	1.17134
3639.02	1.17978
3648.66	1.18182
3658.3	1.18398
3667.94	1.19662
3677.59	1.19584
3687.23	1.20424
3696.87	1.20187
3706.51	1.204
3716.16	1.20935
3725.8	1.21443
3735.44	1.21046
3745.08	1.21783
3754.72	1.22567
3764.37	1.22226
3774.01	1.22546
3783.65	1.23624
3793.29	1.23581
3802.94	1.23536
3812.58	1.24423
3822.22	1.23659
3831.86	1.25781
3841.51	1.25081
3851.15	1.25626
3860.79	1.25344
3870.43	1.25753
3880.07	1.25481
3889.72	1.26384
3899.36	1.271
3909	1.26381
3918.64	1.27779
3928.29	1.28081
3937.93	1.26991
3947.57	1.28895
3957.21	1.2794
3966.86	1.28863
3976.5	1.28882
3986.14	1.29846
3995.78	1.29539
