Measurement: Infrared, Infrared Data Processed
Mineral: Enargite
Rruff sample: R050442
Ideal chemistry: Cu_3_AsS_4_
Locality: Butte, Silver Bow County, Montana, USA
Source: University of Arizona Mineral Museum
Description: Black prismatic crystals associated with pyrite
Measured chemistry: Cu_2.98_As_0.97_Sb_0.03_S_4_
x	intensity
399.193	0.101745
408.835	0.111056
418.477	0.179369
428.12	0.222949
437.762	0.247129
447.404	0.262797
457.047	0.280131
466.689	0.289091
476.331	0.293269
485.974	0.304587
495.616	0.310402
505.258	0.322117
514.901	0.324178
524.543	0.33106
534.185	0.335654
543.828	0.341087
553.47	0.346425
563.112	0.350622
572.755	0.3559
582.397	0.358374
592.039	0.36313
601.682	0.367799
611.324	0.371622
620.966	0.375068
630.609	0.381245
640.251	0.38481
649.893	0.38728
659.536	0.389636
669.178	0.39267
678.82	0.395859
688.463	0.401661
698.105	0.403211
707.747	0.40983
717.39	0.414582
727.032	0.415471
736.674	0.416739
746.317	0.420016
755.959	0.425155
765.601	0.428914
775.244	0.429836
784.886	0.434273
794.528	0.438148
804.171	0.440884
813.813	0.443484
823.455	0.445746
833.098	0.447857
842.74	0.450715
852.382	0.454663
862.025	0.458257
871.667	0.461697
881.309	0.462308
890.952	0.464577
900.594	0.468202
910.236	0.470224
919.879	0.473363
929.521	0.476539
939.163	0.480724
948.806	0.483445
958.448	0.485598
968.09	0.489923
977.733	0.492601
987.375	0.496558
997.017	0.499607
1006.66	0.503044
1016.3	0.507294
1025.94	0.510003
1035.59	0.510872
1045.23	0.513553
1054.87	0.517361
1064.51	0.518008
1074.16	0.51891
1083.8	0.518693
1093.44	0.519716
1103.08	0.520128
1112.72	0.521687
1122.37	0.52376
1132.01	0.527786
1141.65	0.532269
1151.3	0.534133
1160.94	0.533448
1170.58	0.532337
1180.22	0.530268
1189.86	0.531848
1199.51	0.534738
1209.15	0.536492
1218.79	0.537123
1228.43	0.539449
1238.08	0.541411
1247.72	0.542077
1257.36	0.543914
1267	0.545231
1276.64	0.546979
1286.29	0.550062
1295.93	0.552147
1305.57	0.555257
1315.21	0.558047
1324.86	0.560236
1334.5	0.562278
1344.14	0.564883
1353.78	0.567494
1363.43	0.569297
1373.07	0.572094
1382.71	0.57323
1392.35	0.57585
1401.99	0.578963
1411.64	0.581168
1421.28	0.583855
1430.92	0.58657
1440.57	0.58872
1450.21	0.590258
1459.85	0.590574
1469.49	0.590279
1479.13	0.591679
1488.78	0.592752
1498.42	0.595256
1508.06	0.597915
1517.7	0.599301
1527.35	0.601226
1536.99	0.603679
1546.63	0.606017
1556.27	0.608296
1565.91	0.609824
1575.56	0.612025
1585.2	0.614117
1594.84	0.616803
1604.48	0.618827
1614.13	0.621628
1623.77	0.622924
1633.41	0.625498
1643.05	0.627785
1652.7	0.629561
1662.34	0.630719
1671.98	0.631754
1681.62	0.63284
1691.27	0.63464
1700.91	0.636852
1710.55	0.638097
1720.19	0.639903
1729.84	0.641916
1739.48	0.64268
1749.12	0.641364
1758.76	0.642684
1768.4	0.645639
1778.05	0.647411
1787.69	0.649059
1797.33	0.650747
1806.97	0.651889
1816.62	0.652249
1826.26	0.652618
1835.9	0.654853
1845.54	0.657495
1855.18	0.6571
1864.83	0.660161
1874.47	0.661351
1884.11	0.659208
1893.75	0.662631
1903.4	0.663913
1913.04	0.662392
1922.68	0.665168
1932.32	0.662202
1941.97	0.662663
1951.61	0.656434
1961.25	0.653901
1970.89	0.657289
1980.54	0.655464
1990.18	0.656144
1999.82	0.656863
2009.46	0.659236
2019.11	0.657666
2028.75	0.65621
2038.39	0.661978
2048.03	0.67306
2057.67	0.681034
2067.32	0.691955
2076.96	0.691684
2086.6	0.691578
2096.24	0.699082
2105.89	0.695604
2115.53	0.70346
2125.17	0.702096
2134.81	0.693701
2144.45	0.68695
2154.1	0.674298
2163.74	0.681404
2173.38	0.689656
2183.02	0.692949
2192.67	0.700503
2202.31	0.708589
2211.95	0.707945
2221.59	0.712256
2231.24	0.716584
2240.88	0.723821
2250.52	0.723771
2260.16	0.730461
2269.8	0.735517
2279.45	0.741427
2289.09	0.746379
2298.73	0.748703
2308.38	0.752299
2318.02	0.754701
2327.66	0.757838
2337.3	0.760085
2346.94	0.760805
2356.59	0.764955
2366.23	0.763666
2375.87	0.764762
2385.51	0.763935
2395.16	0.767206
2404.8	0.767312
2414.44	0.772595
2424.08	0.769294
2433.72	0.771715
2443.37	0.774263
2453.01	0.774113
2462.65	0.776388
2472.29	0.779403
2481.94	0.782415
2491.58	0.785023
2501.22	0.785943
2510.86	0.788027
2520.51	0.789598
2530.15	0.791134
2539.79	0.794696
2549.43	0.795799
2559.07	0.797204
2568.72	0.79918
2578.36	0.80366
2588	0.805309
2597.64	0.807927
2607.29	0.810566
2616.93	0.81358
2626.57	0.818936
2636.21	0.817968
2645.86	0.822053
2655.5	0.824531
2665.14	0.825802
2674.78	0.828217
2684.43	0.830489
2694.07	0.834342
2703.71	0.835936
2713.35	0.836446
2722.99	0.838422
2732.64	0.84168
2742.28	0.842113
2751.92	0.846047
2761.56	0.846845
2771.21	0.851055
2780.85	0.851596
2790.49	0.851057
2800.13	0.853339
2809.78	0.85727
2819.42	0.861364
2829.06	0.863212
2838.7	0.866119
2848.34	0.866694
2857.99	0.864418
2867.63	0.869678
2877.27	0.868853
2886.91	0.873133
2896.56	0.876776
2906.2	0.878804
2915.84	0.879368
2925.48	0.877534
2935.13	0.874161
2944.77	0.877519
2954.41	0.879724
2964.05	0.879082
2973.7	0.880121
2983.34	0.879045
2992.98	0.885025
3002.62	0.888271
3012.26	0.889229
3021.91	0.893709
3031.55	0.894839
3041.19	0.89742
3050.83	0.899258
3060.48	0.901397
3070.12	0.90048
3079.76	0.905257
3089.4	0.909097
3099.05	0.91244
3108.69	0.913601
3118.33	0.916748
3127.97	0.919824
3137.61	0.921126
3147.26	0.920897
3156.9	0.924084
3166.54	0.930716
3176.18	0.932736
3185.83	0.931132
3195.47	0.934306
3205.11	0.934913
3214.75	0.939021
3224.4	0.938694
3234.04	0.940837
3243.68	0.940176
3253.32	0.946628
3262.97	0.950951
3272.61	0.950429
3282.25	0.956164
3291.89	0.959922
3301.53	0.961735
3311.18	0.955908
3320.82	0.958808
3330.46	0.960605
3340.1	0.961613
3349.75	0.966234
3359.39	0.966957
3369.03	0.97505
3378.67	0.969459
3388.32	0.975573
3397.96	0.976619
3407.6	0.97445
3417.24	0.982053
3426.89	0.981634
3436.53	0.988444
3446.17	0.987215
3455.81	0.985706
3465.45	0.988592
3475.1	0.991026
3484.74	0.996673
3494.38	0.997786
3504.02	0.999836
3513.67	0.998344
3523.31	1.00464
3532.95	0.996212
3542.59	1.00302
3552.24	1.00441
3561.88	1.005
3571.52	1.01092
3581.16	1.01299
3590.8	1.01421
3600.45	1.00977
3610.09	1.01536
3619.73	1.02096
3629.37	1.01922
3639.02	1.02274
3648.66	1.02414
3658.3	1.03243
3667.94	1.0335
3677.59	1.04098
3687.23	1.04252
3696.87	1.03796
3706.51	1.04709
3716.16	1.05223
3725.8	1.04624
3735.44	1.05143
3745.08	1.05778
3754.72	1.05804
3764.37	1.05506
3774.01	1.07139
3783.65	1.06659
3793.29	1.07204
3802.94	1.06948
3812.58	1.06979
3822.22	1.08385
3831.86	1.08447
3841.51	1.07976
3851.15	1.08031
3860.79	1.09189
3870.43	1.08849
3880.07	1.0898
3889.72	1.09273
3899.36	1.09604
3909	1.09954
3918.64	1.10556
3928.29	1.10837
3937.93	1.10882
3947.57	1.11248
3957.21	1.11398
3966.86	1.12256
3976.5	1.12012
3986.14	1.12493
3995.78	1.12791
