Measurement: Infrared, Infrared Data Processed
Mineral: Enstatite
Rruff sample: R050644
Ideal chemistry: MgSiO_3_
Locality: Morogoro, Tanzania
Source: Jibamitra Ganguly
Description: Light brown crystal fragment
Measured chemistry: (Mg_0.90_Fe_0.10_)SiO_3_
x	intensity
399.193	0.218179
408.835	0.209277
418.477	0.212197
428.12	0.247279
437.762	0.269657
447.404	0.300435
457.047	0.265159
466.689	0.228757
476.331	0.244301
485.974	0.275131
495.616	0.289549
505.258	0.263964
514.901	0.225395
524.543	0.171764
534.185	0.178435
543.828	0.18305
553.47	0.163642
563.112	0.141623
572.755	0.103362
582.397	0.0811276
592.039	0.0675189
601.682	0.0600827
611.324	0.0601667
620.966	0.064937
630.609	0.0785097
640.251	0.116768
649.893	0.109888
659.536	0.0782831
669.178	0.0712156
678.82	0.0829052
688.463	0.10061
698.105	0.0818855
707.747	0.0717481
717.39	0.0870423
727.032	0.0979653
736.674	0.0710923
746.317	0.0686249
755.959	0.0593212
765.601	0.0607816
775.244	0.0643394
784.886	0.0716879
794.528	0.0811432
804.171	0.096686
813.813	0.119284
823.455	0.153309
833.098	0.19792
842.74	0.253933
852.382	0.286534
862.025	0.275535
871.667	0.248235
881.309	0.221824
890.952	0.230093
900.594	0.235887
910.236	0.246025
919.879	0.316754
929.521	0.300183
939.163	0.265365
948.806	0.229019
958.448	0.194443
968.09	0.175193
977.733	0.154335
987.375	0.118385
997.017	0.122847
1006.66	0.166314
1016.3	0.147938
1025.94	0.129397
1035.59	0.139357
1045.23	0.17558
1054.87	0.216115
1064.51	0.211474
1074.16	0.176021
1083.8	0.138124
1093.44	0.108493
1103.08	0.0862394
1112.72	0.0681758
1122.37	0.0592991
1132.01	0.0403004
1141.65	0.0226355
1151.3	0.0158498
1160.94	0.0111228
1170.58	0.00927578
1180.22	0.00799938
1189.86	0.00697206
1199.51	0.00613107
1209.15	0.00551526
1218.79	0.00475179
1228.43	0.00451658
1238.08	0.00415539
1247.72	0.00389265
1257.36	0.00398627
1267	0.0041567
1276.64	0.00403462
1286.29	0.00403904
1295.93	0.00400219
1305.57	0.00411362
1315.21	0.0039408
1324.86	0.00418721
1334.5	0.00407446
1344.14	0.00460802
1353.78	0.00444538
1363.43	0.00497942
1373.07	0.00512792
1382.71	0.00493704
1392.35	0.00551459
1401.99	0.00595663
1411.64	0.00646846
1421.28	0.006689
1430.92	0.00716474
1440.57	0.00735461
1450.21	0.00764221
1459.85	0.00765655
1469.49	0.00693391
1479.13	0.00700423
1488.78	0.00742063
1498.42	0.00788341
1508.06	0.00787491
1517.7	0.00805741
1527.35	0.00799324
1536.99	0.00798762
1546.63	0.00781911
1556.27	0.00801891
1565.91	0.00865243
1575.56	0.00872918
1585.2	0.00883995
1594.84	0.00922503
1604.48	0.00948329
1614.13	0.00953145
1623.77	0.00969213
1633.41	0.0100612
1643.05	0.00982854
1652.7	0.00927998
1662.34	0.00921813
1671.98	0.00878533
1681.62	0.0085464
1691.27	0.00787189
1700.91	0.00797414
1710.55	0.00832799
1720.19	0.00786281
1729.84	0.00757864
1739.48	0.00714939
1749.12	0.00713485
1758.76	0.00743741
1768.4	0.00805203
1778.05	0.00722953
1787.69	0.0072471
1797.33	0.00696946
1806.97	0.00838019
1816.62	0.00742081
1826.26	0.00814236
1835.9	0.00697762
1845.54	0.00671594
1855.18	0.00629859
1864.83	0.00677777
1874.47	0.00647174
1884.11	0.00544741
1893.75	0.00753002
1903.4	0.00623228
1913.04	0.00753762
1922.68	0.00725282
1932.32	0.00833127
1941.97	0.00467662
1951.61	0.00515409
1961.25	0.00406267
1970.89	0.00270667
1980.54	0.00787919
1990.18	0.0065941
1999.82	0.0034423
2009.46	0.00366093
2019.11	0.00387826
2028.75	0.00391805
2038.39	0.00677881
2048.03	0.00766188
2057.67	0.00912846
2067.32	0.00549013
2076.96	0.00855634
2086.6	0.00721375
2096.24	0.00687995
2105.89	0.00741794
2115.53	0.00594095
2125.17	0.00668532
2134.81	0.00183626
2144.45	0.00543651
2154.1	-0.0023622
2163.74	0.00472722
2173.38	0.00631182
2183.02	0.00370617
2192.67	0.00560287
2202.31	0.00571486
2211.95	0.00876426
2221.59	0.0100778
2231.24	0.00826234
2240.88	0.0112474
2250.52	0.0142196
2260.16	0.0118161
2269.8	0.0136191
2279.45	0.0153365
2289.09	0.0159997
2298.73	0.0160355
2308.38	0.0160985
2318.02	0.0184336
2327.66	0.0163317
2337.3	0.0169819
2346.94	0.0152932
2356.59	0.0170282
2366.23	0.0169897
2375.87	0.0157312
2385.51	0.0139714
2395.16	0.0149029
2404.8	0.0167445
2414.44	0.0156306
2424.08	0.0156197
2433.72	0.0161106
2443.37	0.0167818
2453.01	0.0161504
2462.65	0.0169857
2472.29	0.0156629
2481.94	0.0162809
2491.58	0.0169854
2501.22	0.0168856
2510.86	0.0169264
2520.51	0.0189959
2530.15	0.0179189
2539.79	0.0174424
2549.43	0.01815
2559.07	0.0182958
2568.72	0.0172291
2578.36	0.0182966
2588	0.0182879
2597.64	0.0207746
2607.29	0.020633
2616.93	0.0184617
2626.57	0.0190027
2636.21	0.0195567
2645.86	0.0196863
2655.5	0.0196557
2665.14	0.0193823
2674.78	0.0180866
2684.43	0.0189362
2694.07	0.0192115
2703.71	0.0190751
2713.35	0.0198156
2722.99	0.0186995
2732.64	0.0200964
2742.28	0.0199943
2751.92	0.0189871
2761.56	0.0193532
2771.21	0.0205914
2780.85	0.0213917
2790.49	0.0213098
2800.13	0.0213376
2809.78	0.0214231
2819.42	0.0219557
2829.06	0.0199331
2838.7	0.0234014
2848.34	0.022222
2857.99	0.0229457
2867.63	0.0220334
2877.27	0.0224144
2886.91	0.0232342
2896.56	0.0231184
2906.2	0.0228426
2915.84	0.0263685
2925.48	0.0233175
2935.13	0.0226219
2944.77	0.024856
2954.41	0.0244539
2964.05	0.0250487
2973.7	0.022754
2983.34	0.0237902
2992.98	0.0255187
3002.62	0.0233647
3012.26	0.0233508
3021.91	0.0238194
3031.55	0.0245977
3041.19	0.0259468
3050.83	0.0254761
3060.48	0.0257432
3070.12	0.0258933
3079.76	0.0248486
3089.4	0.0281486
3099.05	0.028136
3108.69	0.0278994
3118.33	0.0277627
3127.97	0.024478
3137.61	0.0267842
3147.26	0.0278735
3156.9	0.0294638
3166.54	0.0304184
3176.18	0.027287
3185.83	0.0294913
3195.47	0.0264586
3205.11	0.0289833
3214.75	0.0284424
3224.4	0.0293256
3234.04	0.0291036
3243.68	0.0283451
3253.32	0.0322594
3262.97	0.0307396
3272.61	0.0325031
3282.25	0.0300211
3291.89	0.0296194
3301.53	0.0315379
3311.18	0.0319274
3320.82	0.0316047
3330.46	0.0312085
3340.1	0.0340822
3349.75	0.0354802
3359.39	0.03622
3369.03	0.0307011
3378.67	0.0354212
3388.32	0.0345386
3397.96	0.0298462
3407.6	0.033203
3417.24	0.0310789
3426.89	0.0312565
3436.53	0.0337229
3446.17	0.0317582
3455.81	0.0327999
3465.45	0.0352849
3475.1	0.0324764
3484.74	0.0337691
3494.38	0.0347028
3504.02	0.0359496
3513.67	0.0303357
3523.31	0.0331703
3532.95	0.0315457
3542.59	0.0322217
3552.24	0.0338847
3561.88	0.0338764
3571.52	0.0324373
3581.16	0.0323851
3590.8	0.0320326
3600.45	0.0321537
3610.09	0.0299696
3619.73	0.0308334
3629.37	0.0318247
3639.02	0.0299
3648.66	0.0319514
3658.3	0.0344081
3667.94	0.0284202
3677.59	0.0304372
3687.23	0.0314912
3696.87	0.031859
3706.51	0.0327092
3716.16	0.0294927
3725.8	0.0289647
3735.44	0.0295508
3745.08	0.0327619
3754.72	0.032812
3764.37	0.0293688
3774.01	0.0293628
3783.65	0.0277895
3793.29	0.0309969
3802.94	0.0302086
3812.58	0.0320059
3822.22	0.0328165
3831.86	0.0307564
3841.51	0.0366807
3851.15	0.0302095
3860.79	0.0313988
3870.43	0.0304568
3880.07	0.030018
3889.72	0.0354183
3899.36	0.0332083
3909	0.0325205
3918.64	0.0354882
3928.29	0.0326126
3937.93	0.0351124
3947.57	0.0330552
3957.21	0.0300463
3966.86	0.0321208
3976.5	0.0314986
3986.14	0.0334419
3995.78	0.0307396
