Measurement: Infrared, Infrared Data Processed
Mineral: Eosphorite
Rruff sample: R050557
Ideal chemistry: Mn^2+^AlPO_4_(OH)_2_H_2_O
Locality: Minas Gerais, Brazil
Source: Dave Bunk Minerals
Description: A radial group of light brown bladed crystals
Measured chemistry: (Mn^2+^_0.46_Fe^2+^_0.32_Ca_0.16_Mg_0.06_)_Σ=1_Al_1.00_(P_1.00_O_4_)(OH)_2_·H_2_O
x	intensity
399.193	0.217861
408.835	0.199094
418.477	0.191075
428.12	0.201672
437.762	0.203439
447.404	0.193963
457.047	0.176724
466.689	0.168243
476.331	0.145317
485.974	0.11601
495.616	0.10134
505.258	0.10497
514.901	0.117285
524.543	0.124709
534.185	0.136096
543.828	0.158923
553.47	0.207878
563.112	0.265925
572.755	0.268086
582.397	0.223012
592.039	0.258513
601.682	0.25159
611.324	0.227064
620.966	0.200637
630.609	0.17424
640.251	0.181606
649.893	0.201058
659.536	0.181408
669.178	0.152915
678.82	0.143199
688.463	0.137822
698.105	0.12415
707.747	0.0991743
717.39	0.0742641
727.032	0.0619352
736.674	0.0586082
746.317	0.0597848
755.959	0.0627625
765.601	0.0675964
775.244	0.0744054
784.886	0.0833865
794.528	0.0933334
804.171	0.103528
813.813	0.115501
823.455	0.131264
833.098	0.151585
842.74	0.175387
852.382	0.200403
862.025	0.227847
871.667	0.259363
881.309	0.289394
890.952	0.311131
900.594	0.32036
910.236	0.313151
919.879	0.297085
929.521	0.278199
939.163	0.256369
948.806	0.226559
958.448	0.21665
968.09	0.246235
977.733	0.316828
987.375	0.341458
997.017	0.365479
1006.66	0.43111
1016.3	0.456309
1025.94	0.4349
1035.59	0.373598
1045.23	0.298665
1054.87	0.244663
1064.51	0.227742
1074.16	0.238148
1083.8	0.212668
1093.44	0.161594
1103.08	0.12048
1112.72	0.0912742
1122.37	0.0720742
1132.01	0.0641299
1141.65	0.0633459
1151.3	0.0678658
1160.94	0.0853183
1170.58	0.080684
1180.22	0.0642797
1189.86	0.057382
1199.51	0.0536584
1209.15	0.0499967
1218.79	0.0470302
1228.43	0.0456205
1238.08	0.0445701
1247.72	0.0439216
1257.36	0.0434835
1267	0.0438633
1276.64	0.044477
1286.29	0.0443688
1295.93	0.044324
1305.57	0.0443819
1315.21	0.0446532
1324.86	0.0446515
1334.5	0.0449807
1344.14	0.045359
1353.78	0.0453292
1363.43	0.0455283
1373.07	0.0456767
1382.71	0.0462628
1392.35	0.0462723
1401.99	0.0464813
1411.64	0.0469999
1421.28	0.0474087
1430.92	0.0475598
1440.57	0.0476199
1450.21	0.0477831
1459.85	0.047711
1469.49	0.0474118
1479.13	0.0469058
1488.78	0.0472383
1498.42	0.0473338
1508.06	0.0474484
1517.7	0.0475391
1527.35	0.0478463
1536.99	0.0482547
1546.63	0.048957
1556.27	0.0494145
1565.91	0.0504515
1575.56	0.0519378
1585.2	0.0537535
1594.84	0.0558887
1604.48	0.059083
1614.13	0.0625388
1623.77	0.0642636
1633.41	0.0614367
1643.05	0.0563379
1652.7	0.0515535
1662.34	0.047992
1671.98	0.0449332
1681.62	0.0426715
1691.27	0.0424604
1700.91	0.0421873
1710.55	0.041269
1720.19	0.040755
1729.84	0.0415227
1739.48	0.0413291
1749.12	0.0404648
1758.76	0.0409502
1768.4	0.0408973
1778.05	0.0412471
1787.69	0.0410708
1797.33	0.0420363
1806.97	0.04161
1816.62	0.0411291
1826.26	0.0423981
1835.9	0.0422096
1845.54	0.0427194
1855.18	0.0411589
1864.83	0.0417697
1874.47	0.0415198
1884.11	0.0410424
1893.75	0.0418525
1903.4	0.0397605
1913.04	0.0404617
1922.68	0.0382221
1932.32	0.0368164
1941.97	0.0364308
1951.61	0.0341559
1961.25	0.0310895
1970.89	0.0296051
1980.54	0.0344008
1990.18	0.0316939
1999.82	0.0326753
2009.46	0.0307093
2019.11	0.025998
2028.75	0.027474
2038.39	0.0285433
2048.03	0.0290657
2057.67	0.0297101
2067.32	0.029568
2076.96	0.032859
2086.6	0.032158
2096.24	0.0292848
2105.89	0.0317445
2115.53	0.0280733
2125.17	0.0274742
2134.81	0.0232078
2144.45	0.0210996
2154.1	0.0157859
2163.74	0.0249534
2173.38	0.0233813
2183.02	0.0258502
2192.67	0.0251734
2202.31	0.0257532
2211.95	0.0246276
2221.59	0.0297061
2231.24	0.030262
2240.88	0.0288804
2250.52	0.0302596
2260.16	0.0313444
2269.8	0.0335252
2279.45	0.0336923
2289.09	0.0352637
2298.73	0.0373561
2308.38	0.0364933
2318.02	0.0366084
2327.66	0.0357458
2337.3	0.0336874
2346.94	0.0349434
2356.59	0.0329985
2366.23	0.0336488
2375.87	0.03433
2385.51	0.0341599
2395.16	0.0349419
2404.8	0.035507
2414.44	0.0353127
2424.08	0.0354197
2433.72	0.0367145
2443.37	0.0367251
2453.01	0.0363174
2462.65	0.0353038
2472.29	0.0381007
2481.94	0.0361077
2491.58	0.0359943
2501.22	0.0365009
2510.86	0.0342848
2520.51	0.0346392
2530.15	0.037253
2539.79	0.0355649
2549.43	0.0365473
2559.07	0.038285
2568.72	0.0383098
2578.36	0.038497
2588	0.0414683
2597.64	0.0408568
2607.29	0.0413216
2616.93	0.0424928
2626.57	0.0414294
2636.21	0.0428421
2645.86	0.0427474
2655.5	0.0439049
2665.14	0.0432074
2674.78	0.0430211
2684.43	0.0430133
2694.07	0.0430126
2703.71	0.0433969
2713.35	0.0442103
2722.99	0.0455577
2732.64	0.0452023
2742.28	0.0458693
2751.92	0.0465805
2761.56	0.0478182
2771.21	0.0487235
2780.85	0.0473847
2790.49	0.0489542
2800.13	0.0508736
2809.78	0.0519
2819.42	0.0526372
2829.06	0.0542073
2838.7	0.0543936
2848.34	0.0563252
2857.99	0.0579602
2867.63	0.05766
2877.27	0.0599153
2886.91	0.0597576
2896.56	0.0626615
2906.2	0.0646378
2915.84	0.0661713
2925.48	0.067145
2935.13	0.0674163
2944.77	0.0685978
2954.41	0.0687677
2964.05	0.0702351
2973.7	0.0727272
2983.34	0.071924
2992.98	0.0743872
3002.62	0.0729043
3012.26	0.0745168
3021.91	0.0754203
3031.55	0.0752599
3041.19	0.0746038
3050.83	0.0754948
3060.48	0.0756408
3070.12	0.0766944
3079.76	0.0754868
3089.4	0.0770604
3099.05	0.0761954
3108.69	0.0768588
3118.33	0.0760268
3127.97	0.0763435
3137.61	0.0768172
3147.26	0.0758332
3156.9	0.0754435
3166.54	0.0784387
3176.18	0.0775021
3185.83	0.076036
3195.47	0.0777714
3205.11	0.0790977
3214.75	0.0830125
3224.4	0.0832155
3234.04	0.084476
3243.68	0.0864736
3253.32	0.0874903
3262.97	0.0914487
3272.61	0.0931644
3282.25	0.0952645
3291.89	0.0977711
3301.53	0.100103
3311.18	0.0965074
3320.82	0.100484
3330.46	0.0962622
3340.1	0.0951537
3349.75	0.0917073
3359.39	0.0936703
3369.03	0.0878504
3378.67	0.086809
3388.32	0.0883931
3397.96	0.0887998
3407.6	0.099448
3417.24	0.108323
3426.89	0.130349
3436.53	0.14995
3446.17	0.159401
3455.81	0.14359
3465.45	0.121548
3475.1	0.0866814
3484.74	0.0667865
3494.38	0.0475382
3504.02	0.0358762
3513.67	0.029669
3523.31	0.0282687
3532.95	0.0310544
3542.59	0.0260977
3552.24	0.0258946
3561.88	0.024967
3571.52	0.0204203
3581.16	0.0190487
3590.8	0.0189119
3600.45	0.0134501
3610.09	0.0191451
3619.73	0.0169839
3629.37	0.016178
3639.02	0.0154223
3648.66	0.017292
3658.3	0.0178155
3667.94	0.012145
3677.59	0.0188786
3687.23	0.019559
3696.87	0.0148961
3706.51	0.0174034
3716.16	0.0165825
3725.8	0.015097
3735.44	0.0176497
3745.08	0.0129896
3754.72	0.0160603
3764.37	0.0197689
3774.01	0.0178899
3783.65	0.0188516
3793.29	0.0162276
3802.94	0.0203865
3812.58	0.0154428
3822.22	0.0130197
3831.86	0.0219585
3841.51	0.0178057
3851.15	0.0220743
3860.79	0.0208955
3870.43	0.02218
3880.07	0.0197062
3889.72	0.0203777
3899.36	0.0245055
3909	0.0192531
3918.64	0.0204187
3928.29	0.0182442
3937.93	0.0228585
3947.57	0.0194283
3957.21	0.0222801
3966.86	0.0211735
3976.5	0.0234165
3986.14	0.0191165
3995.78	0.0201727
