Measurement: Infrared, Infrared Data Processed
Mineral: Epidote
Rruff sample: R050202
Ideal chemistry: Ca_2_Fe^3+^Al_2_(Si_2_O_7_)(SiO_4_)O(OH)
Locality: Iron Cap mine, Landsman Camp, Graham County, Arizona, USA
Source: Bob Downs
Description: Green colored prismatic single crystal associated with quartz, diopside and tremolite
Measured chemistry: Ca_2.00_Al_2.00_(Fe^3+^_0.68_Al_0.32_)(SiO_4_)(Si_2_O_7_)O(OH)
x	intensity
374.123	0.288196
383.765	0.252879
393.407	0.289163
403.05	0.235686
412.692	0.203653
422.334	0.180059
431.976	0.188801
441.619	0.209277
451.261	0.229939
460.904	0.198112
470.546	0.178365
480.188	0.155157
489.83	0.170109
499.473	0.212027
509.115	0.240838
518.758	0.227141
528.4	0.191935
538.042	0.175655
547.684	0.171572
557.327	0.169194
566.969	0.162157
576.611	0.143948
586.254	0.122119
595.896	0.109289
605.538	0.0921063
615.181	0.103291
624.823	0.149478
634.466	0.187152
644.108	0.199391
653.75	0.169497
663.393	0.14057
673.035	0.115452
682.677	0.0927419
692.319	0.0715441
701.962	0.0589723
711.604	0.050284
721.246	0.0543693
730.889	0.0444125
740.531	0.037142
750.173	0.0391647
759.816	0.0438371
769.458	0.0515503
779.101	0.0636007
788.743	0.0706824
798.385	0.0919001
808.028	0.101499
817.67	0.126778
827.312	0.169601
836.955	0.197659
846.597	0.198514
856.239	0.228524
865.881	0.233383
875.524	0.280169
885.166	0.266132
894.808	0.235578
904.451	0.213301
914.093	0.196805
923.736	0.207434
933.378	0.25592
943.02	0.280658
952.663	0.260296
962.305	0.203454
971.947	0.152423
981.59	0.114796
991.232	0.0895788
1000.87	0.0723232
1010.52	0.0664053
1020.16	0.0786731
1029.8	0.123346
1039.44	0.139038
1049.09	0.11018
1058.73	0.106672
1068.37	0.129563
1078.01	0.147083
1087.65	0.142954
1097.3	0.139874
1106.94	0.134557
1116.58	0.117244
1126.22	0.0903957
1135.87	0.0613711
1145.51	0.0402994
1155.15	0.0305043
1164.79	0.0281056
1174.44	0.0236208
1184.08	0.0215572
1193.72	0.0188688
1203.36	0.0156981
1213.01	0.0124143
1222.65	0.0103269
1232.29	0.00945607
1241.93	0.0090482
1251.58	0.00851771
1261.22	0.00828003
1270.86	0.00854002
1280.5	0.00860017
1290.14	0.00841066
1299.79	0.00847291
1309.43	0.00883371
1319.07	0.0092038
1328.71	0.00996804
1338.36	0.0115026
1348	0.01448
1357.64	0.0186434
1367.28	0.0188796
1376.92	0.0181911
1386.57	0.0187479
1396.21	0.0225325
1405.85	0.0282294
1415.49	0.0356855
1425.14	0.04018
1434.78	0.0430842
1444.42	0.0450364
1454.06	0.0459754
1463.71	0.0451453
1473.35	0.0442627
1482.99	0.042138
1492.63	0.0400477
1502.28	0.0370091
1511.92	0.0343745
1521.56	0.0329383
1531.2	0.0305171
1540.85	0.0265636
1550.49	0.0258242
1560.13	0.0265772
1569.77	0.0231157
1579.41	0.0208211
1589.06	0.0187117
1598.7	0.0180458
1608.34	0.017632
1617.98	0.0175371
1627.63	0.0156662
1637.27	0.0148062
1646.91	0.0145285
1656.55	0.0140237
1666.19	0.0138166
1675.84	0.0141035
1685.48	0.0142899
1695.12	0.0138191
1704.77	0.0126321
1714.41	0.0123567
1724.05	0.0116518
1733.69	0.0120977
1743.33	0.011285
1752.98	0.0113122
1762.62	0.0114485
1772.26	0.0122174
1781.9	0.012058
1791.55	0.0120711
1801.19	0.0120343
1810.83	0.0116652
1820.47	0.0117572
1830.12	0.0118051
1839.76	0.011521
1849.4	0.0116355
1859.04	0.0120131
1868.68	0.0119302
1878.33	0.0117977
1887.97	0.0116846
1897.61	0.0115251
1907.25	0.0117687
1916.9	0.0118601
1926.54	0.0114978
1936.18	0.0108438
1945.82	0.0110403
1955.46	0.0108536
1965.11	0.0111981
1974.75	0.0106704
1984.39	0.012266
1994.04	0.0137362
2003.68	0.0112968
2013.32	0.0132474
2022.96	0.0124152
2032.6	0.0139133
2042.25	0.0122868
2051.89	0.0150166
2061.53	0.0136591
2071.17	0.0138531
2080.82	0.0138276
2090.46	0.0134115
2100.1	0.0145406
2109.74	0.0144441
2119.39	0.0140982
2129.03	0.0115677
2138.67	0.0114839
2148.31	0.0115855
2157.95	0.00610212
2167.6	0.0114946
2177.24	0.00868569
2186.88	0.0107588
2196.52	0.0115154
2206.17	0.011952
2215.81	0.0107208
2225.45	0.0121406
2235.09	0.0124017
2244.74	0.0126741
2254.38	0.012959
2264.02	0.0137332
2273.66	0.0145507
2283.3	0.0163691
2292.95	0.0165093
2302.59	0.0165829
2312.23	0.0174884
2321.87	0.0186242
2331.52	0.017337
2341.16	0.0178595
2350.8	0.0173382
2360.44	0.0177189
2370.09	0.0174528
2379.73	0.0170481
2389.37	0.0171464
2399.01	0.0167224
2408.66	0.0174288
2418.3	0.0173305
2427.94	0.0179306
2437.58	0.0179097
2447.22	0.0180554
2456.87	0.01783
2466.51	0.0185492
2476.15	0.0178982
2485.79	0.018588
2495.44	0.0181313
2505.08	0.018401
2514.72	0.0183283
2524.36	0.0178606
2534.01	0.017696
2543.65	0.0179735
2553.29	0.0177788
2562.93	0.0186199
2572.57	0.0180653
2582.22	0.0179796
2591.86	0.0179908
2601.5	0.0183094
2611.14	0.018387
2620.79	0.0188853
2630.43	0.0190451
2640.07	0.0193376
2649.71	0.0190179
2659.36	0.0190085
2669	0.0189188
2678.64	0.0190202
2688.28	0.018839
2697.93	0.0187472
2707.57	0.0192966
2717.21	0.0189486
2726.85	0.01897
2736.49	0.0191777
2746.14	0.0194512
2755.78	0.0198368
2765.42	0.0199351
2775.06	0.0195582
2784.71	0.0199631
2794.35	0.0198494
2803.99	0.0197563
2813.63	0.0204972
2823.28	0.0203604
2832.92	0.0208993
2842.56	0.0216304
2852.2	0.0223661
2861.84	0.0226462
2871.49	0.0217182
2881.13	0.0217315
2890.77	0.0224825
2900.41	0.0230423
2910.06	0.0229201
2919.7	0.0245266
2929.34	0.0241999
2938.98	0.0226608
2948.62	0.0227509
2958.27	0.0224285
2967.91	0.0216398
2977.55	0.0210603
2987.2	0.0216122
2996.84	0.0209703
3006.48	0.0206958
3016.12	0.0210902
3025.76	0.0218609
3035.41	0.0214789
3045.05	0.0223819
3054.69	0.0222187
3064.33	0.0229277
3073.98	0.0225874
3083.62	0.0231982
3093.26	0.0236731
3102.9	0.0239593
3112.55	0.0242767
3122.19	0.0244867
3131.83	0.0253598
3141.47	0.0259146
3151.11	0.0257052
3160.76	0.0267569
3170.4	0.0263996
3180.04	0.0273782
3189.68	0.027913
3199.33	0.0283906
3208.97	0.0286049
3218.61	0.0291866
3228.25	0.0293979
3237.9	0.0298104
3247.54	0.0312418
3257.18	0.031758
3266.82	0.0325209
3276.47	0.0330014
3286.11	0.0342474
3295.75	0.03444
3305.39	0.0367316
3315.03	0.0392199
3324.68	0.0419957
3334.32	0.0468344
3343.96	0.0535426
3353.6	0.0564308
3363.25	0.0575803
3372.89	0.0526154
3382.53	0.0461716
3392.17	0.0388949
3401.82	0.0340494
3411.46	0.0301762
3421.1	0.026049
3430.74	0.02514
3440.39	0.0253335
3450.03	0.0241508
3459.67	0.0234453
3469.31	0.0232082
3478.95	0.0233051
3488.6	0.0226025
3498.24	0.0213014
3507.88	0.021741
3517.52	0.020658
3527.17	0.020606
3536.81	0.0202369
3546.45	0.0202894
3556.09	0.0189427
3565.74	0.0192403
3575.38	0.0187387
3585.02	0.01869
3594.66	0.0164865
3604.3	0.0176617
3613.95	0.0174806
3623.59	0.0164006
3633.23	0.0153975
3642.87	0.0148782
3652.52	0.0161446
3662.16	0.0167494
3671.8	0.0160127
3681.44	0.0153809
3691.09	0.015011
3700.73	0.0153085
3710.37	0.0157556
3720.01	0.015217
3729.66	0.014189
3739.3	0.0147337
3748.94	0.0170144
3758.58	0.0150223
3768.22	0.0153671
3777.87	0.0164669
3787.51	0.0153153
3797.15	0.0146929
3806.79	0.0148622
3816.44	0.0163973
3826.08	0.0149637
3835.72	0.015207
3845.36	0.0155522
3855.01	0.0178421
3864.65	0.0142255
3874.29	0.0138728
3883.93	0.0150198
3893.57	0.013869
3903.22	0.0147419
3912.86	0.0133629
3922.5	0.0144424
3932.14	0.0154878
3941.79	0.0135332
3951.43	0.0133554
3961.07	0.0141387
3970.71	0.0151857
3980.36	0.0139343
3990	0.013655
3999.64	0.0143881
