Measurement: Infrared, Infrared Data Processed
Mineral: Epidote
Rruff sample: R050191
Ideal chemistry: Ca_2_Fe^3+^Al_2_(Si_2_O_7_)(SiO_4_)O(OH)
Locality: Pampa Blanca, Castrovirreyna Province, Huancavelica Department, Peru
Source: Dave Bunk Minerals
Description: Cluster of green elongated prismatic crystals
Measured chemistry: Ca_2.00_Al_2.00_(Fe^3+^_0.84_Al_0.16_)(SiO_4_)(Si_2_O_7_)O(OH)
x	intensity
50.1401	0.0327798
52.0686	0.0195249
53.9971	0.017409
55.9255	0.0207478
57.854	0.0276608
59.7825	0.0401194
61.7109	0.0426624
63.6394	0.0436099
65.5679	0.0372727
67.4963	0.0389259
69.4248	0.046049
71.3533	0.0455306
73.2817	0.0493254
75.2102	0.053643
77.1387	0.0522797
79.0671	0.0543681
80.9956	0.0566433
82.9241	0.0601589
84.8525	0.0630278
86.781	0.06251
88.7095	0.060228
90.6379	0.061518
92.5664	0.0634092
94.4948	0.0662403
96.4233	0.0659169
98.3518	0.0668314
100.28	0.0667852
102.209	0.0701378
104.137	0.0711945
106.066	0.0716543
107.994	0.0718924
109.923	0.0734571
111.851	0.0735697
113.779	0.0738265
115.708	0.0739105
117.636	0.0735224
119.565	0.0747784
121.493	0.0746092
123.422	0.0721542
125.35	0.0726017
127.279	0.0724694
129.207	0.0724992
131.136	0.0740049
133.064	0.0764462
134.993	0.0782415
136.921	0.0803487
138.85	0.0799918
140.778	0.0784857
142.707	0.0761318
144.635	0.0731381
146.563	0.069418
148.492	0.0655601
150.42	0.0630023
152.349	0.0627106
154.277	0.0625021
156.206	0.0633142
158.134	0.0659107
160.063	0.069796
161.991	0.0742428
163.92	0.078351
165.848	0.0814416
167.777	0.0832683
169.705	0.0829671
171.633	0.0822219
173.562	0.0823984
175.49	0.0847304
177.419	0.088378
179.347	0.0921794
181.276	0.0951092
183.204	0.0973637
185.133	0.0980218
187.061	0.0978481
188.99	0.0981112
190.918	0.100631
192.847	0.10371
194.775	0.107081
196.704	0.110065
198.632	0.112818
200.56	0.115219
202.489	0.11671
204.417	0.116446
206.346	0.115609
208.274	0.112866
210.203	0.111211
212.131	0.110542
214.06	0.111961
215.988	0.115136
217.917	0.118594
219.845	0.120962
221.774	0.122559
223.702	0.122181
225.631	0.120516
227.559	0.117696
229.488	0.114527
231.416	0.111311
233.344	0.108718
235.273	0.108283
237.201	0.110381
239.13	0.113902
241.058	0.118249
242.987	0.121968
244.915	0.125372
246.844	0.128018
248.772	0.130517
250.701	0.131613
252.629	0.131636
254.558	0.130363
256.486	0.128564
258.414	0.126502
260.343	0.12553
262.271	0.125718
264.2	0.12661
266.128	0.127325
268.057	0.128242
269.985	0.129176
271.914	0.130628
273.842	0.132658
275.771	0.135632
277.699	0.138207
279.628	0.140079
281.556	0.140603
283.485	0.140412
285.413	0.138711
287.341	0.135839
289.27	0.132536
291.198	0.129494
293.127	0.125999
295.055	0.123846
296.984	0.124754
298.912	0.125415
300.841	0.125229
302.769	0.125003
304.698	0.124254
306.626	0.122925
308.555	0.121481
310.483	0.120993
312.411	0.121418
314.34	0.122603
316.269	0.122995
318.197	0.122941
320.125	0.123854
322.054	0.126132
323.982	0.128924
325.911	0.131641
327.839	0.134405
329.768	0.137683
331.696	0.140645
333.625	0.143792
335.553	0.147227
337.482	0.150759
339.41	0.153511
341.339	0.156086
343.267	0.158449
345.195	0.160724
347.124	0.162154
349.052	0.160155
350.981	0.152406
352.909	0.14906
354.838	0.148311
356.766	0.146486
358.695	0.144943
360.623	0.143736
362.552	0.143922
364.48	0.146401
366.409	0.150444
368.337	0.155355
370.265	0.160201
372.194	0.164582
374.122	0.168332
376.051	0.171462
377.979	0.173405
379.908	0.173961
381.836	0.172527
383.765	0.170617
385.693	0.169288
387.622	0.169782
389.55	0.171292
391.479	0.172685
393.407	0.172887
395.336	0.170792
397.264	0.166345
399.192	0.161125
401.121	0.156177
403.049	0.152601
404.978	0.150425
406.906	0.14883
408.835	0.146769
410.763	0.14431
412.692	0.141659
414.62	0.139567
416.549	0.13824
418.477	0.137335
420.406	0.136182
422.334	0.134543
424.262	0.132741
426.191	0.130499
428.12	0.127692
430.048	0.124416
431.976	0.121198
433.905	0.118277
435.833	0.114887
437.762	0.112736
439.69	0.113928
441.619	0.117685
443.547	0.123107
445.476	0.129585
447.404	0.135671
449.333	0.140353
451.261	0.143764
453.19	0.145291
455.118	0.144266
457.046	0.141399
458.975	0.13814
460.903	0.135734
462.832	0.134276
464.76	0.133855
466.689	0.132942
468.617	0.130552
470.546	0.126727
472.474	0.122933
474.403	0.119915
476.331	0.117556
478.26	0.11675
480.188	0.117672
482.116	0.119981
484.045	0.123587
485.974	0.127671
487.902	0.132379
489.83	0.138122
491.759	0.144225
493.687	0.15025
495.616	0.155866
497.544	0.161893
499.473	0.167942
501.401	0.173118
503.33	0.177863
505.258	0.181732
507.187	0.184517
509.115	0.186523
511.043	0.187797
512.972	0.187633
514.9	0.186327
516.829	0.184472
518.757	0.182036
520.686	0.178951
522.614	0.174882
524.543	0.171058
526.471	0.167794
528.4	0.164405
530.328	0.161115
532.257	0.158609
534.185	0.156935
536.114	0.155576
538.042	0.154034
539.971	0.152708
541.899	0.151315
543.827	0.15014
545.756	0.149807
547.684	0.150109
549.613	0.150112
551.541	0.150002
553.47	0.149691
555.398	0.148982
557.327	0.147878
559.255	0.147137
561.184	0.146779
563.112	0.145844
565.041	0.144453
566.969	0.143254
568.898	0.141509
570.826	0.139412
572.755	0.136649
574.683	0.133452
576.611	0.130497
578.54	0.128178
580.468	0.125871
582.397	0.123373
584.325	0.121698
586.254	0.120449
588.182	0.11879
590.111	0.117004
592.039	0.115348
593.968	0.114035
595.896	0.113039
597.824	0.112096
599.753	0.111626
601.682	0.111465
603.61	0.110375
605.538	0.109004
607.467	0.108228
609.395	0.108568
611.324	0.110907
613.252	0.114577
615.181	0.118876
617.109	0.125386
619.038	0.132735
620.966	0.139778
622.894	0.146415
624.823	0.151263
626.751	0.154776
628.68	0.157706
630.608	0.160303
632.537	0.163224
634.465	0.166618
636.394	0.169924
638.322	0.17275
640.251	0.175329
642.179	0.177081
644.108	0.177441
646.036	0.176785
647.965	0.175001
649.893	0.172067
651.822	0.168461
653.75	0.164321
655.678	0.159604
657.607	0.154935
659.535	0.151278
661.464	0.148062
663.392	0.144929
665.321	0.141669
667.249	0.13775
669.178	0.133558
671.106	0.129239
673.035	0.125632
674.963	0.122177
676.892	0.118234
678.82	0.114906
680.749	0.112446
682.677	0.109527
684.606	0.105761
686.534	0.101678
688.462	0.0983876
690.391	0.0958787
692.319	0.0931919
694.248	0.0913724
696.176	0.0904997
698.105	0.0895567
700.033	0.0879868
