Measurement: Infrared, Infrared Data Processed
Mineral: Epidote
Rruff sample: R050131
Ideal chemistry: Ca_2_Fe^3+^Al_2_(Si_2_O_7_)(SiO_4_)O(OH)
Locality: Calumet mine, Chaffee County, Colorado, USA
Source: Dave Bunk Minerals
Description: Green prismatic crystal
Measured chemistry: Ca_2.00_Al_2.00_(Fe^3+^_0.75_Al_0.25_)(SiO_4_)(Si_2_O_7_)O(OH)
x	intensity
370.266	0
379.908	0.255805
389.55	0.199611
399.193	0.219401
408.835	0.173004
418.477	0.137278
428.12	0.138715
437.762	0.138338
447.404	0.151086
457.047	0.147904
466.689	0.126744
476.331	0.109056
485.974	0.108659
495.616	0.140317
505.258	0.168245
514.901	0.176758
524.543	0.158159
534.185	0.1394
543.828	0.133988
553.47	0.136484
563.112	0.132196
572.755	0.123086
582.397	0.107201
592.039	0.0926343
601.682	0.07814
611.324	0.0742098
620.966	0.0994248
630.609	0.132297
640.251	0.149361
649.893	0.141403
659.536	0.116156
669.178	0.0951736
678.82	0.0747606
688.463	0.0566666
698.105	0.0458571
707.747	0.0365043
717.39	0.0368782
727.032	0.0388625
736.674	0.026742
746.317	0.0256886
755.959	0.0279436
765.601	0.0319709
775.244	0.0377377
784.886	0.0458341
794.528	0.0573389
804.171	0.073184
813.813	0.0931505
823.455	0.121319
833.098	0.145441
842.74	0.143712
852.382	0.151029
862.025	0.161301
871.667	0.177853
881.309	0.192216
890.952	0.171555
900.594	0.153493
910.236	0.138887
919.879	0.133769
929.521	0.156299
939.163	0.181951
948.806	0.186653
958.448	0.159177
968.09	0.119781
977.733	0.0839705
987.375	0.0602853
997.017	0.0436985
1006.66	0.0318002
1016.3	0.0327019
1025.94	0.0544074
1035.59	0.0879869
1045.23	0.0714158
1054.87	0.0572674
1064.51	0.065274
1074.16	0.0833239
1083.8	0.08439
1093.44	0.0823873
1103.08	0.0843133
1112.72	0.0762142
1122.37	0.0612163
1132.01	0.0426071
1141.65	0.0248447
1151.3	0.0143261
1160.94	0.0100131
1170.58	0.00734811
1180.22	0.005638
1189.86	0.00471097
1199.51	0.00419278
1209.15	0.00332355
1218.79	0.00320734
1228.43	0.00288058
1238.08	0.00311968
1247.72	0.00297169
1257.36	0.00307823
1267	0.00311379
1276.64	0.00331184
1286.29	0.0034308
1295.93	0.0033407
1305.57	0.00338305
1315.21	0.00384949
1324.86	0.00398494
1334.5	0.00436767
1344.14	0.00485918
1353.78	0.0051145
1363.43	0.00556334
1373.07	0.00589424
1382.71	0.00696375
1392.35	0.00794859
1401.99	0.00945125
1411.64	0.0117582
1421.28	0.0141271
1430.92	0.0166084
1440.57	0.0181182
1450.21	0.0189106
1459.85	0.0194949
1469.49	0.0194031
1479.13	0.0188354
1488.78	0.0171707
1498.42	0.015985
1508.06	0.0133641
1517.7	0.012242
1527.35	0.0108329
1536.99	0.00944407
1546.63	0.00934549
1556.27	0.0080736
1565.91	0.00850005
1575.56	0.00773448
1585.2	0.00887401
1594.84	0.0088174
1604.48	0.00896484
1614.13	0.00855388
1623.77	0.00855526
1633.41	0.00822121
1643.05	0.00878428
1652.7	0.00646089
1662.34	0.00893584
1671.98	0.00876649
1681.62	0.00863062
1691.27	0.00925351
1700.91	0.00776076
1710.55	0.00892185
1720.19	0.00864358
1729.84	0.00836513
1739.48	0.00775661
1749.12	0.00828553
1758.76	0.00848875
1768.4	0.00854631
1778.05	0.0087468
1787.69	0.00872816
1797.33	0.00888034
1806.97	0.00874778
1816.62	0.00861231
1826.26	0.00885883
1835.9	0.00886876
1845.54	0.00816663
1855.18	0.0094972
1864.83	0.00900287
1874.47	0.00888207
1884.11	0.0091507
1893.75	0.009183
1903.4	0.00857141
1913.04	0.00973213
1922.68	0.00895963
1932.32	0.00907905
1941.97	0.00994302
1951.61	0.0097451
1961.25	0.0102414
1970.89	0.0122139
1980.54	0.0139189
1990.18	0.0132957
1999.82	0.0126372
2009.46	0.0131802
2019.11	0.0133445
2028.75	0.0138025
2038.39	0.0148252
2048.03	0.0155623
2057.67	0.0134696
2067.32	0.0122592
2076.96	0.0131151
2086.6	0.0129428
2096.24	0.0133124
2105.89	0.0124065
2115.53	0.0124632
2125.17	0.0119489
2134.81	0.0105464
2144.45	0.0102194
2154.1	0.0109147
2163.74	0.0147016
2173.38	0.0121309
2183.02	0.0143496
2192.67	0.0142
2202.31	0.0127917
2211.95	0.0127265
2221.59	0.0129219
2231.24	0.013838
2240.88	0.0135137
2250.52	0.0134205
2260.16	0.0140648
2269.8	0.0146305
2279.45	0.0157259
2289.09	0.0157949
2298.73	0.015373
2308.38	0.014828
2318.02	0.0155032
2327.66	0.0148258
2337.3	0.0151148
2346.94	0.0151183
2356.59	0.0152032
2366.23	0.0151578
2375.87	0.0139966
2385.51	0.0145006
2395.16	0.0147829
2404.8	0.0141764
2414.44	0.0151647
2424.08	0.015033
2433.72	0.0160125
2443.37	0.0161414
2453.01	0.0164588
2462.65	0.0157343
2472.29	0.0160031
2481.94	0.0159267
2491.58	0.0158602
2501.22	0.0159891
2510.86	0.0162478
2520.51	0.0159519
2530.15	0.0172388
2539.79	0.0170055
2549.43	0.0175257
2559.07	0.0170687
2568.72	0.0169096
2578.36	0.0166915
2588	0.0171324
2597.64	0.017374
2607.29	0.0172313
2616.93	0.0178243
2626.57	0.0180439
2636.21	0.0172836
2645.86	0.0171603
2655.5	0.0172605
2665.14	0.0161872
2674.78	0.0163631
2684.43	0.0168076
2694.07	0.0169395
2703.71	0.0170969
2713.35	0.0170984
2722.99	0.0165679
2732.64	0.0172313
2742.28	0.0173958
2751.92	0.0170932
2761.56	0.0171052
2771.21	0.0177231
2780.85	0.0179262
2790.49	0.0179192
2800.13	0.0173644
2809.78	0.0176796
2819.42	0.0181402
2829.06	0.017913
2838.7	0.0186023
2848.34	0.018427
2857.99	0.0184035
2867.63	0.0175312
2877.27	0.0174656
2886.91	0.0181568
2896.56	0.01866
2906.2	0.0186907
2915.84	0.0194193
2925.48	0.0195815
2935.13	0.0187205
2944.77	0.0180786
2954.41	0.0176372
2964.05	0.0177168
2973.7	0.0175714
2983.34	0.0180554
2992.98	0.0185654
3002.62	0.0184138
3012.26	0.0192789
3021.91	0.0193564
3031.55	0.0193152
3041.19	0.0194578
3050.83	0.0190174
3060.48	0.0192543
3070.12	0.020297
3079.76	0.0199212
3089.4	0.0198977
3099.05	0.0201409
3108.69	0.0210323
3118.33	0.0214093
3127.97	0.020661
3137.61	0.0213039
3147.26	0.0214712
3156.9	0.023016
3166.54	0.0229585
3176.18	0.0236537
3185.83	0.0244726
3195.47	0.0237926
3205.11	0.0239968
3214.75	0.0241926
3224.4	0.0252166
3234.04	0.0259087
3243.68	0.0265451
3253.32	0.0268618
3262.97	0.0279805
3272.61	0.0280531
3282.25	0.0285849
3291.89	0.0297404
3301.53	0.0304626
3311.18	0.0317324
3320.82	0.0355426
3330.46	0.0404391
3340.1	0.0454961
3349.75	0.0477382
3359.39	0.0479791
3369.03	0.0450807
3378.67	0.038179
3388.32	0.0335115
3397.96	0.0265926
3407.6	0.0244172
3417.24	0.0219568
3426.89	0.0206399
3436.53	0.0208138
3446.17	0.0189175
3455.81	0.0201083
3465.45	0.0200909
3475.1	0.0194249
3484.74	0.0200335
3494.38	0.0186574
3504.02	0.0176906
3513.67	0.0176707
3523.31	0.0187602
3532.95	0.0176592
3542.59	0.0179333
3552.24	0.0169201
3561.88	0.0173186
3571.52	0.0167379
3581.16	0.0162689
3590.8	0.0187821
3600.45	0.0187459
3610.09	0.0178846
3619.73	0.0157116
3629.37	0.0142102
3639.02	0.017285
3648.66	0.0134834
3658.3	0.0175543
3667.94	0.0159503
3677.59	0.0152281
3687.23	0.0148687
3696.87	0.0171047
3706.51	0.0162612
3716.16	0.0182471
3725.8	0.0158574
3735.44	0.0156976
3745.08	0.0151943
3754.72	0.0166038
3764.37	0.0157023
3774.01	0.0181881
3783.65	0.0172723
3793.29	0.0161114
3802.94	0.0155673
3812.58	0.0174117
3822.22	0.0168284
3831.86	0.0149481
3841.51	0.014928
3851.15	0.014394
3860.79	0.0164198
3870.43	0.0141068
3880.07	0.0148201
3889.72	0.0164741
3899.36	0.016758
3909	0.0170725
3918.64	0.0173647
3928.29	0.0161949
3937.93	0.015532
3947.57	0.0172112
3957.21	0.017529
3966.86	0.0167631
3976.5	0.0184391
3986.14	0.0181018
3995.78	0.0171074
