Measurement: Infrared, Infrared Data Processed
Mineral: Epidote
Rruff sample: R050064
Ideal chemistry: Ca_2_Fe^3+^Al_2_(Si_2_O_7_)(SiO_4_)O(OH)
Locality: East Xichang City, Meigu County, Sichuan Province, China
Source: Rock Currier
Description: Green prismatic crystals
Measured chemistry: (Ca_1.99_Mn_0.01_)_Î£=2_Fe^3+^_1.00_Al_2.00_(Si_2.00_O_7_)(Si_1.00_O_4_)O(OH);
x	intensity
399.193	0
408.835	0.156903
418.477	0.133965
428.12	0.129461
437.762	0.143952
447.404	0.17545
457.047	0.161668
466.689	0.142779
476.331	0.115165
485.974	0.134076
495.616	0.177841
505.258	0.207466
514.901	0.201761
524.543	0.170591
534.185	0.14752
543.828	0.13779
553.47	0.136028
563.112	0.133879
572.755	0.119767
582.397	0.102015
592.039	0.0887822
601.682	0.0777278
611.324	0.0785574
620.966	0.111706
630.609	0.143436
640.251	0.162336
649.893	0.151215
659.536	0.120143
669.178	0.0939711
678.82	0.0738436
688.463	0.0524249
698.105	0.0403719
707.747	0.0400254
717.39	0.0464404
727.032	0.0324132
736.674	0.0268992
746.317	0.0278572
755.959	0.0310274
765.601	0.0357332
775.244	0.0427444
784.886	0.0516668
794.528	0.0653512
804.171	0.0854874
813.813	0.114003
823.455	0.147784
833.098	0.167181
842.74	0.165015
852.382	0.187185
862.025	0.194058
871.667	0.218818
881.309	0.219057
890.952	0.193704
900.594	0.175875
910.236	0.154929
919.879	0.154717
929.521	0.184681
939.163	0.219878
948.806	0.222122
958.448	0.179933
968.09	0.130531
977.733	0.0927048
987.375	0.0675522
997.017	0.0511677
1006.66	0.043133
1016.3	0.0495954
1025.94	0.0837387
1035.59	0.100369
1045.23	0.0762061
1054.87	0.0682792
1064.51	0.0876459
1074.16	0.10396
1083.8	0.0928923
1093.44	0.0830057
1103.08	0.086733
1112.72	0.0758245
1122.37	0.0548141
1132.01	0.0324714
1141.65	0.0191723
1151.3	0.0135276
1160.94	0.0104159
1170.58	0.00843614
1180.22	0.00676973
1189.86	0.00614465
1199.51	0.00509575
1209.15	0.00437492
1218.79	0.00386144
1228.43	0.00363401
1238.08	0.00381597
1247.72	0.00388386
1257.36	0.00412562
1267	0.00376896
1276.64	0.00382349
1286.29	0.00372739
1295.93	0.00390792
1305.57	0.00361184
1315.21	0.0038622
1324.86	0.00412137
1334.5	0.00439298
1344.14	0.00467421
1353.78	0.00512146
1363.43	0.00501412
1373.07	0.00523333
1382.71	0.00521371
1392.35	0.00541406
1401.99	0.00563353
1411.64	0.00590425
1421.28	0.00580294
1430.92	0.00605515
1440.57	0.00601937
1450.21	0.00649649
1459.85	0.00625633
1469.49	0.00629742
1479.13	0.00604872
1488.78	0.00607673
1498.42	0.00642777
1508.06	0.00597219
1517.7	0.00658613
1527.35	0.00705401
1536.99	0.00760473
1546.63	0.00814623
1556.27	0.00822525
1565.91	0.00896608
1575.56	0.00984058
1585.2	0.00990512
1594.84	0.0100586
1604.48	0.0103779
1614.13	0.0101899
1623.77	0.00950947
1633.41	0.00969359
1643.05	0.00953964
1652.7	0.00934546
1662.34	0.00950683
1671.98	0.00936504
1681.62	0.00949875
1691.27	0.00941208
1700.91	0.00862164
1710.55	0.00901235
1720.19	0.00871917
1729.84	0.00882689
1739.48	0.00829468
1749.12	0.00813468
1758.76	0.00877324
1768.4	0.00841071
1778.05	0.00855453
1787.69	0.00832813
1797.33	0.00872413
1806.97	0.00854644
1816.62	0.00813579
1826.26	0.0084846
1835.9	0.00807574
1845.54	0.00819534
1855.18	0.00834382
1864.83	0.00749184
1874.47	0.00816487
1884.11	0.00827456
1893.75	0.00792367
1903.4	0.00804772
1913.04	0.00781868
1922.68	0.0073893
1932.32	0.00737089
1941.97	0.00801094
1951.61	0.00716103
1961.25	0.00677162
1970.89	0.00669788
1980.54	0.0107199
1990.18	0.00895646
1999.82	0.00944019
2009.46	0.00965297
2019.11	0.0106413
2028.75	0.0110258
2038.39	0.0109362
2048.03	0.0114356
2057.67	0.0103318
2067.32	0.00998725
2076.96	0.00981287
2086.6	0.0105919
2096.24	0.0109758
2105.89	0.0114212
2115.53	0.0111055
2125.17	0.0107574
2134.81	0.00718723
2144.45	0.00779531
2154.1	0.00610985
2163.74	0.00948236
2173.38	0.00735712
2183.02	0.00860734
2192.67	0.0105159
2202.31	0.00818148
2211.95	0.00968659
2221.59	0.0113906
2231.24	0.0128094
2240.88	0.0115639
2250.52	0.0123404
2260.16	0.0136702
2269.8	0.0146456
2279.45	0.0150864
2289.09	0.0150814
2298.73	0.014649
2308.38	0.015111
2318.02	0.015223
2327.66	0.0144672
2337.3	0.0144287
2346.94	0.013928
2356.59	0.0146605
2366.23	0.0140748
2375.87	0.0145829
2385.51	0.0140421
2395.16	0.0146123
2404.8	0.0149059
2414.44	0.0149132
2424.08	0.0150094
2433.72	0.014755
2443.37	0.0161738
2453.01	0.0158418
2462.65	0.01596
2472.29	0.0147326
2481.94	0.0160682
2491.58	0.0155144
2501.22	0.0151486
2510.86	0.0162552
2520.51	0.0164147
2530.15	0.0160019
2539.79	0.0156585
2549.43	0.0168102
2559.07	0.0170704
2568.72	0.0174616
2578.36	0.0160869
2588	0.0171568
2597.64	0.0169598
2607.29	0.0172281
2616.93	0.0179542
2626.57	0.0172551
2636.21	0.0176524
2645.86	0.017247
2655.5	0.0175083
2665.14	0.0169566
2674.78	0.0169123
2684.43	0.0174887
2694.07	0.0167907
2703.71	0.0166458
2713.35	0.017021
2722.99	0.0170572
2732.64	0.0174877
2742.28	0.0178204
2751.92	0.0180311
2761.56	0.0175569
2771.21	0.0179833
2780.85	0.0183012
2790.49	0.0179607
2800.13	0.0184385
2809.78	0.0176618
2819.42	0.0179157
2829.06	0.0183435
2838.7	0.0188213
2848.34	0.0192985
2857.99	0.0184693
2867.63	0.0183497
2877.27	0.0191854
2886.91	0.0193852
2896.56	0.0200623
2906.2	0.0196687
2915.84	0.019195
2925.48	0.0192857
2935.13	0.0192218
2944.77	0.0194638
2954.41	0.0193534
2964.05	0.0186502
2973.7	0.0193469
2983.34	0.0198739
2992.98	0.0194813
3002.62	0.0189793
3012.26	0.0200876
3021.91	0.019954
3031.55	0.0213433
3041.19	0.0213424
3050.83	0.0209098
3060.48	0.0205438
3070.12	0.0212107
3079.76	0.0206631
3089.4	0.0211822
3099.05	0.0218805
3108.69	0.0214605
3118.33	0.0216419
3127.97	0.0215009
3137.61	0.023303
3147.26	0.0243164
3156.9	0.0228511
3166.54	0.0230021
3176.18	0.0230439
3185.83	0.0230403
3195.47	0.0241051
3205.11	0.0252211
3214.75	0.0243031
3224.4	0.0245617
3234.04	0.0248484
3243.68	0.0268473
3253.32	0.02549
3262.97	0.028006
3272.61	0.0277444
3282.25	0.0280141
3291.89	0.0291995
3301.53	0.0307844
3311.18	0.0308007
3320.82	0.0345324
3330.46	0.0356314
3340.1	0.0383546
3349.75	0.0422286
3359.39	0.0462906
3369.03	0.0494264
3378.67	0.0484343
3388.32	0.0398157
3397.96	0.0337793
3407.6	0.028386
3417.24	0.0244682
3426.89	0.0222546
3436.53	0.020307
3446.17	0.021384
3455.81	0.0216167
3465.45	0.0234789
3475.1	0.0219646
3484.74	0.0205138
3494.38	0.0219143
3504.02	0.0200688
3513.67	0.0204941
3523.31	0.0202078
3532.95	0.0208047
3542.59	0.0206277
3552.24	0.0199128
3561.88	0.0199746
3571.52	0.0200747
3581.16	0.0190792
3590.8	0.02054
3600.45	0.017769
3610.09	0.0198414
3619.73	0.0197645
3629.37	0.01697
3639.02	0.0176744
3648.66	0.0206156
3658.3	0.020231
3667.94	0.019835
3677.59	0.0172236
3687.23	0.0173429
3696.87	0.0160601
3706.51	0.0174749
3716.16	0.0167841
3725.8	0.021499
3735.44	0.0191945
3745.08	0.0171565
3754.72	0.0184632
3764.37	0.0194145
3774.01	0.0182199
3783.65	0.0192453
3793.29	0.0197181
3802.94	0.0171886
3812.58	0.0180653
3822.22	0.0176548
3831.86	0.0188267
3841.51	0.018745
3851.15	0.0187937
3860.79	0.0173419
3870.43	0.0175631
3880.07	0.0184509
3889.72	0.0179684
3899.36	0.0185887
3909	0.019287
3918.64	0.0174571
3928.29	0.0188213
3937.93	0.0192431
3947.57	0.0177094
3957.21	0.0181549
3966.86	0.0182997
3976.5	0.0177328
3986.14	0.0192317
3995.78	0.019117
