Measurement: Infrared, Infrared Data Processed
Mineral: Euclase
Rruff sample: R050032
Ideal chemistry: BeAlSiO_4_(OH)
Locality: Minas Gerais, Brazil
Source: University of Arizona Mineral Museum
Description: Colorless crystal fragments
Measured chemistry: Be_1.00_Al_1.00_Si_1.00_O_4_(OH)
x	intensity
399.193	0
408.835	0.287543
418.477	0.280508
428.12	0.253244
437.762	0.221329
447.404	0.209019
457.047	0.162421
466.689	0.144399
476.331	0.218174
485.974	0.188177
495.616	0.186671
505.258	0.235382
514.901	0.263367
524.543	0.251136
534.185	0.232907
543.828	0.18208
553.47	0.120398
563.112	0.19763
572.755	0.195742
582.397	0.25593
592.039	0.243842
601.682	0.166327
611.324	0.142622
620.966	0.120552
630.609	0.195271
640.251	0.257179
649.893	0.270522
659.536	0.278458
669.178	0.236428
678.82	0.228073
688.463	0.175075
698.105	0.140252
707.747	0.12377
717.39	0.130601
727.032	0.185113
736.674	0.214114
746.317	0.191967
755.959	0.18557
765.601	0.226429
775.244	0.199453
784.886	0.188056
794.528	0.198296
804.171	0.159933
813.813	0.103452
823.455	0.0661172
833.098	0.0743536
842.74	0.116672
852.382	0.198862
862.025	0.297309
871.667	0.350454
881.309	0.380649
890.952	0.399239
900.594	0.393117
910.236	0.359387
919.879	0.305257
929.521	0.258582
939.163	0.222449
948.806	0.192079
958.448	0.165682
968.09	0.141698
977.733	0.120855
987.375	0.102929
997.017	0.0851417
1006.66	0.0666385
1016.3	0.0557085
1025.94	0.065348
1035.59	0.0616314
1045.23	0.0555114
1054.87	0.0730449
1064.51	0.135299
1074.16	0.121571
1083.8	0.0875449
1093.44	0.0662497
1103.08	0.0490412
1112.72	0.0356078
1122.37	0.0261407
1132.01	0.0187884
1141.65	0.0148488
1151.3	0.0128988
1160.94	0.0113315
1170.58	0.0100333
1180.22	0.00924197
1189.86	0.00821598
1199.51	0.00791144
1209.15	0.00702167
1218.79	0.00654681
1228.43	0.00592868
1238.08	0.00569975
1247.72	0.00524435
1257.36	0.00503942
1267	0.00468989
1276.64	0.00470911
1286.29	0.00433274
1295.93	0.00450372
1305.57	0.00433351
1315.21	0.00441634
1324.86	0.00413775
1334.5	0.00413942
1344.14	0.00416698
1353.78	0.00428556
1363.43	0.0044672
1373.07	0.00443793
1382.71	0.0045384
1392.35	0.00470099
1401.99	0.00449865
1411.64	0.00436054
1421.28	0.00451692
1430.92	0.00469851
1440.57	0.00471955
1450.21	0.00491018
1459.85	0.00524361
1469.49	0.00540073
1479.13	0.00491357
1488.78	0.00485991
1498.42	0.00427586
1508.06	0.00449448
1517.7	0.00428619
1527.35	0.00456533
1536.99	0.00435363
1546.63	0.00472271
1556.27	0.0049472
1565.91	0.00571358
1575.56	0.00549828
1585.2	0.00601703
1594.84	0.00608332
1604.48	0.00587949
1614.13	0.00610336
1623.77	0.00606174
1633.41	0.00598342
1643.05	0.00572714
1652.7	0.00591627
1662.34	0.0056565
1671.98	0.00535208
1681.62	0.00504537
1691.27	0.00482838
1700.91	0.00429367
1710.55	0.00386385
1720.19	0.0038847
1729.84	0.00369541
1739.48	0.00343004
1749.12	0.00341694
1758.76	0.00306032
1768.4	0.00322898
1778.05	0.00328427
1787.69	0.00381553
1797.33	0.0030269
1806.97	0.00330479
1816.62	0.00341209
1826.26	0.00338313
1835.9	0.00326904
1845.54	0.00317489
1855.18	0.00341203
1864.83	0.00285455
1874.47	0.00361543
1884.11	0.00298558
1893.75	0.00326246
1903.4	0.00394349
1913.04	0.00320804
1922.68	0.00258789
1932.32	0.00255288
1941.97	0.00241479
1951.61	0.00246115
1961.25	0.00339423
1970.89	0.00246979
1980.54	0.00510528
1990.18	0.00354281
1999.82	0.00352741
2009.46	0.00485995
2019.11	0.00478107
2028.75	0.0054995
2038.39	0.00564406
2048.03	0.00636463
2057.67	0.00498283
2067.32	0.00489577
2076.96	0.00566795
2086.6	0.0064253
2096.24	0.00693237
2105.89	0.00579728
2115.53	0.0048081
2125.17	0.0034415
2134.81	0.00254663
2144.45	0.0025022
2154.1	-0.000183183
2163.74	0.0061372
2173.38	0.00548843
2183.02	0.00383133
2192.67	0.00589833
2202.31	0.00707835
2211.95	0.00568415
2221.59	0.00839068
2231.24	0.00702166
2240.88	0.00795063
2250.52	0.00750685
2260.16	0.00850118
2269.8	0.00806283
2279.45	0.00985101
2289.09	0.00938811
2298.73	0.00885832
2308.38	0.00923682
2318.02	0.00929899
2327.66	0.0076282
2337.3	0.00821883
2346.94	0.00820457
2356.59	0.00847597
2366.23	0.00754058
2375.87	0.00825714
2385.51	0.00818077
2395.16	0.00790006
2404.8	0.00882502
2414.44	0.00892226
2424.08	0.00933184
2433.72	0.00969892
2443.37	0.00966159
2453.01	0.00941889
2462.65	0.0102467
2472.29	0.00900397
2481.94	0.0102096
2491.58	0.00948397
2501.22	0.0101644
2510.86	0.00993033
2520.51	0.0102587
2530.15	0.00888952
2539.79	0.0101426
2549.43	0.0106734
2559.07	0.0107416
2568.72	0.0106417
2578.36	0.00947528
2588	0.0101055
2597.64	0.00992687
2607.29	0.0112306
2616.93	0.0110492
2626.57	0.0110349
2636.21	0.0106165
2645.86	0.011032
2655.5	0.0109453
2665.14	0.0107262
2674.78	0.0101411
2684.43	0.0102946
2694.07	0.0100768
2703.71	0.0107702
2713.35	0.00970163
2722.99	0.0100228
2732.64	0.0105337
2742.28	0.0107353
2751.92	0.0103897
2761.56	0.0112725
2771.21	0.0108956
2780.85	0.0112558
2790.49	0.0111506
2800.13	0.0116328
2809.78	0.0114477
2819.42	0.0121005
2829.06	0.0118817
2838.7	0.0129257
2848.34	0.0124718
2857.99	0.0131745
2867.63	0.012338
2877.27	0.0129552
2886.91	0.0128886
2896.56	0.0138685
2906.2	0.0135156
2915.84	0.0130487
2925.48	0.0132606
2935.13	0.0133684
2944.77	0.0131581
2954.41	0.0130829
2964.05	0.0133162
2973.7	0.0137514
2983.34	0.0143031
2992.98	0.0137941
3002.62	0.0146267
3012.26	0.0145435
3021.91	0.0146225
3031.55	0.0150412
3041.19	0.0143003
3050.83	0.0145532
3060.48	0.0151985
3070.12	0.0147209
3079.76	0.0153885
3089.4	0.0153769
3099.05	0.0155408
3108.69	0.0150813
3118.33	0.0145631
3127.97	0.0151674
3137.61	0.0147685
3147.26	0.0158447
3156.9	0.0165361
3166.54	0.0163577
3176.18	0.0163689
3185.83	0.0171201
3195.47	0.0171352
3205.11	0.015162
3214.75	0.0167142
3224.4	0.0165747
3234.04	0.0167097
3243.68	0.0152614
3253.32	0.0161849
3262.97	0.0154921
3272.61	0.0172872
3282.25	0.0167474
3291.89	0.0165238
3301.53	0.0168408
3311.18	0.0160757
3320.82	0.0177557
3330.46	0.0164676
3340.1	0.0165458
3349.75	0.0172116
3359.39	0.0181032
3369.03	0.017729
3378.67	0.0184338
3388.32	0.018153
3397.96	0.0187957
3407.6	0.0177022
3417.24	0.0177465
3426.89	0.0187249
3436.53	0.020018
3446.17	0.0184102
3455.81	0.0184808
3465.45	0.0197077
3475.1	0.0208939
3484.74	0.0204963
3494.38	0.0214467
3504.02	0.0211162
3513.67	0.022859
3523.31	0.024053
3532.95	0.0261135
3542.59	0.027804
3552.24	0.0334164
3561.88	0.0535427
3571.52	0.147747
3581.16	0.158677
3590.8	0.0402283
3600.45	0.0178636
3610.09	0.0159769
3619.73	0.0121054
3629.37	0.0153281
3639.02	0.0135589
3648.66	0.0149237
3658.3	0.0138716
3667.94	0.0126906
3677.59	0.0127353
3687.23	0.0149733
3696.87	0.0146302
3706.51	0.0132164
3716.16	0.0149495
3725.8	0.014997
3735.44	0.0146783
3745.08	0.0133532
3754.72	0.0135892
3764.37	0.0141496
3774.01	0.0139674
3783.65	0.0152053
3793.29	0.0154664
3802.94	0.016484
3812.58	0.0176384
3822.22	0.0161284
3831.86	0.0161968
3841.51	0.0161012
3851.15	0.0158842
3860.79	0.0149669
3870.43	0.0151462
3880.07	0.0156962
3889.72	0.0173379
3899.36	0.0146024
3909	0.0139404
3918.64	0.0160193
3928.29	0.0169587
3937.93	0.0144767
3947.57	0.0157493
3957.21	0.0181327
3966.86	0.0167051
3976.5	0.0162882
3986.14	0.0173187
3995.78	0.0172818
