Measurement: Infrared, Infrared Data Processed
Mineral: Eudidymite
Rruff sample: R060063
Ideal chemistry: Na_2_Be_2_Si_6_O_15_H_2_O
Locality: Langesundfjord, Norway
Source: University of Arizona Mineral Museum
Description: Colorless crystal fragment
Measured chemistry: Na_1.00_Be_1.00_Si_3.00_O_7_(OH)
x	intensity
399.193	0.414432
408.835	0.447568
418.477	0.388058
428.12	0.250915
437.762	0.167061
447.404	0.123132
457.047	0.149288
466.689	0.158696
476.331	0.140997
485.974	0.0778506
495.616	0.076699
505.258	0.121826
514.901	0.103868
524.543	0.0483459
534.185	0.0409586
543.828	0.0496896
553.47	0.071524
563.112	0.086098
572.755	0.113673
582.397	0.18201
592.039	0.134968
601.682	0.103546
611.324	0.0689514
620.966	0.0783603
630.609	0.102097
640.251	0.0936735
649.893	0.110072
659.536	0.134315
669.178	0.164979
678.82	0.195622
688.463	0.20456
698.105	0.20034
707.747	0.159488
717.39	0.128898
727.032	0.159285
736.674	0.170223
746.317	0.129315
755.959	0.128783
765.601	0.174736
775.244	0.189709
784.886	0.282751
794.528	0.301113
804.171	0.23702
813.813	0.145864
823.455	0.0841318
833.098	0.0665205
842.74	0.0661658
852.382	0.0801162
862.025	0.115506
871.667	0.17369
881.309	0.156311
890.952	0.081301
900.594	0.0667127
910.236	0.0766265
919.879	0.0979298
929.521	0.131816
939.163	0.189146
948.806	0.27843
958.448	0.400771
968.09	0.517224
977.733	0.534277
987.375	0.417646
997.017	0.43569
1006.66	0.542633
1016.3	0.504935
1025.94	0.441695
1035.59	0.388084
1045.23	0.327419
1054.87	0.277574
1064.51	0.215788
1074.16	0.180618
1083.8	0.160212
1093.44	0.16515
1103.08	0.190721
1112.72	0.208184
1122.37	0.209082
1132.01	0.193849
1141.65	0.21156
1151.3	0.166848
1160.94	0.120808
1170.58	0.092169
1180.22	0.0673616
1189.86	0.0467139
1199.51	0.0328949
1209.15	0.0250258
1218.79	0.0196883
1228.43	0.0158193
1238.08	0.013321
1247.72	0.011474
1257.36	0.0097808
1267	0.00925289
1276.64	0.00836522
1286.29	0.00796827
1295.93	0.00782552
1305.57	0.00678022
1315.21	0.00649489
1324.86	0.00616581
1334.5	0.00594907
1344.14	0.00548874
1353.78	0.00548514
1363.43	0.00481704
1373.07	0.00448069
1382.71	0.00456875
1392.35	0.00490945
1401.99	0.00476129
1411.64	0.00485657
1421.28	0.00457565
1430.92	0.00507393
1440.57	0.00469177
1450.21	0.0049206
1459.85	0.00508686
1469.49	0.0046795
1479.13	0.0047642
1488.78	0.00497758
1498.42	0.0052617
1508.06	0.00557539
1517.7	0.00585949
1527.35	0.00505206
1536.99	0.0051005
1546.63	0.00536381
1556.27	0.00532102
1565.91	0.0055242
1575.56	0.00580102
1585.2	0.00641517
1594.84	0.00687229
1604.48	0.00780759
1614.13	0.00870227
1623.77	0.00973076
1633.41	0.0109785
1643.05	0.0169769
1652.7	0.0249626
1662.34	0.0151937
1671.98	0.00859114
1681.62	0.00660266
1691.27	0.00591838
1700.91	0.00461177
1710.55	0.00434288
1720.19	0.00405237
1729.84	0.00388639
1739.48	0.00231687
1749.12	0.00207134
1758.76	0.0017196
1768.4	0.00275487
1778.05	0.00243464
1787.69	0.00350017
1797.33	0.00286946
1806.97	0.00266731
1816.62	0.00136852
1826.26	0.00166067
1835.9	0.00199857
1845.54	0.00196726
1855.18	0.000493653
1864.83	4.87833e-05
1874.47	0.00122376
1884.11	0.000701563
1893.75	0.00100855
1903.4	0.0013246
1913.04	0.00127357
1922.68	0.00041048
1932.32	0.00192094
1941.97	-0.00124242
1951.61	0.00253902
1961.25	0.00193057
1970.89	0.000371412
1980.54	0.00317257
1990.18	0.000368611
1999.82	0.00545243
2009.46	0.000455543
2019.11	0.00138197
2028.75	0.00272066
2038.39	0.00124358
2048.03	0.000428446
2057.67	0.00261777
2067.32	0.00117384
2076.96	0.00459171
2086.6	0.00223494
2096.24	0.00111476
2105.89	0.00202505
2115.53	0.00324632
2125.17	0.00403214
2134.81	0.000439149
2144.45	0.00727706
2154.1	0.012515
2163.74	0.00688899
2173.38	0.00456493
2183.02	0.00943136
2192.67	0.00592907
2202.31	0.00793557
2211.95	0.00246353
2221.59	0.00182813
2231.24	0.00510054
2240.88	0.00352743
2250.52	0.00794872
2260.16	0.00182718
2269.8	0.00167509
2279.45	0.00425757
2289.09	0.00360249
2298.73	0.00181408
2308.38	0.00176732
2318.02	0.00246127
2327.66	0.00285204
2337.3	0.00167961
2346.94	0.00181164
2356.59	0.00178147
2366.23	0.00214578
2375.87	0.00323288
2385.51	0.00396898
2395.16	0.00357513
2404.8	0.00273803
2414.44	0.00399945
2424.08	0.00504416
2433.72	0.00574004
2443.37	0.00505964
2453.01	0.00481048
2462.65	0.00358903
2472.29	0.00431573
2481.94	0.00359193
2491.58	0.0045089
2501.22	0.00443557
2510.86	0.00502224
2520.51	0.00626136
2530.15	0.00292009
2539.79	0.00550567
2549.43	0.00542543
2559.07	0.00566294
2568.72	0.00514526
2578.36	0.00468287
2588	0.00564021
2597.64	0.00583906
2607.29	0.00694166
2616.93	0.00590108
2626.57	0.00626096
2636.21	0.00692259
2645.86	0.00689712
2655.5	0.00718164
2665.14	0.00673617
2674.78	0.00740145
2684.43	0.00669258
2694.07	0.00701638
2703.71	0.00721611
2713.35	0.00704275
2722.99	0.00671004
2732.64	0.00778623
2742.28	0.00792017
2751.92	0.00779327
2761.56	0.00790466
2771.21	0.00989411
2780.85	0.00821678
2790.49	0.00902326
2800.13	0.00877465
2809.78	0.00906999
2819.42	0.00909957
2829.06	0.00935255
2838.7	0.01038
2848.34	0.00940078
2857.99	0.0085629
2867.63	0.0119545
2877.27	0.0108849
2886.91	0.0106302
2896.56	0.00993325
2906.2	0.0113293
2915.84	0.0103922
2925.48	0.0111806
2935.13	0.0130446
2944.77	0.0119716
2954.41	0.0140796
2964.05	0.0143483
2973.7	0.0133864
2983.34	0.0136136
2992.98	0.0123511
3002.62	0.0144083
3012.26	0.0127033
3021.91	0.0149538
3031.55	0.0126473
3041.19	0.0146827
3050.83	0.0150511
3060.48	0.015282
3070.12	0.0151391
3079.76	0.0173143
3089.4	0.0147849
3099.05	0.015471
3108.69	0.0160681
3118.33	0.0160707
3127.97	0.0155393
3137.61	0.0186922
3147.26	0.0158735
3156.9	0.0168272
3166.54	0.0183971
3176.18	0.0185633
3185.83	0.0192171
3195.47	0.0207285
3205.11	0.0187813
3214.75	0.0198007
3224.4	0.0192018
3234.04	0.0206134
3243.68	0.0180861
3253.32	0.0190142
3262.97	0.0186536
3272.61	0.0204038
3282.25	0.0183848
3291.89	0.0176606
3301.53	0.019502
3311.18	0.0185023
3320.82	0.0213394
3330.46	0.0192531
3340.1	0.0225211
3349.75	0.0202772
3359.39	0.0196594
3369.03	0.0197771
3378.67	0.0196175
3388.32	0.0229576
3397.96	0.0199264
3407.6	0.0249104
3417.24	0.0244054
3426.89	0.0217397
3436.53	0.0219027
3446.17	0.0222835
3455.81	0.02371
3465.45	0.0263882
3475.1	0.032555
3484.74	0.0411704
3494.38	0.0441064
3504.02	0.0382447
3513.67	0.0354809
3523.31	0.0412448
3532.95	0.0490111
3542.59	0.0412153
3552.24	0.0290502
3561.88	0.0288834
3571.52	0.0219867
3581.16	0.0200769
3590.8	0.0185675
3600.45	0.0176333
3610.09	0.0155043
3619.73	0.0121135
3629.37	0.0177135
3639.02	0.0122327
3648.66	0.00845947
3658.3	0.0126287
3667.94	0.011487
3677.59	0.00223065
3687.23	0.00559543
3696.87	0.00558812
3706.51	0.0103967
3716.16	0.00692303
3725.8	0.00815402
3735.44	0.00990514
3745.08	0.0109035
3754.72	0.00696374
3764.37	0.00840699
3774.01	0.0060234
3783.65	0.00788453
3793.29	0.00590522
3802.94	0.00587487
3812.58	0.00497971
3822.22	0.00615142
3831.86	0.00524582
3841.51	0.0079116
3851.15	0.00484056
3860.79	0.00582831
3870.43	0.0043156
3880.07	0.00317596
3889.72	0.00335796
3899.36	0.00827331
3909	0.00742864
3918.64	0.00589355
3928.29	0.00771081
3937.93	0.00715077
3947.57	0.00873472
3957.21	0.00832706
3966.86	0.00725589
3976.5	0.000309914
3986.14	0.00619181
3995.78	0.00809841
