Measurement: Infrared, Infrared Data Processed
Mineral: Euxenite-(Y)
Rruff sample: R080101
Ideal chemistry: (Y^3+^,Ca,Ce^3+^,U^4+^,Th^4+^)(Nb^5+^,Ta^5+^,Ti^4+^)_2_O_6_
Locality: Betafo, Madagascar
Source: Michael Scott
Description: Khaki colored fragment from metamict sample R060856, after heating at T = 1000 C for 24 hours
x	intensity
399.193	0.235303
408.835	0.238533
418.477	0.238366
428.12	0.23801
437.762	0.237641
447.404	0.240103
457.047	0.235684
466.689	0.229485
476.331	0.217963
485.974	0.21506
495.616	0.222364
505.258	0.23767
514.901	0.246243
524.543	0.2418
534.185	0.231707
543.828	0.221741
553.47	0.216832
563.112	0.214763
572.755	0.211791
582.397	0.210675
592.039	0.209616
601.682	0.210215
611.324	0.21313
620.966	0.214635
630.609	0.216697
640.251	0.215602
649.893	0.211168
659.536	0.205475
669.178	0.19809
678.82	0.188467
688.463	0.17746
698.105	0.164438
707.747	0.153272
717.39	0.144962
727.032	0.139
736.674	0.135154
746.317	0.132938
755.959	0.131492
765.601	0.12899
775.244	0.124187
784.886	0.117634
794.528	0.110037
804.171	0.10272
813.813	0.0954175
823.455	0.088149
833.098	0.0802312
842.74	0.0711669
852.382	0.0597555
862.025	0.0465601
871.667	0.0343464
881.309	0.0272773
890.952	0.0230664
900.594	0.0204465
910.236	0.0185783
919.879	0.0173803
929.521	0.0161345
939.163	0.0149661
948.806	0.0140165
958.448	0.0132062
968.09	0.0127649
977.733	0.0119179
987.375	0.0113028
997.017	0.01097
1006.66	0.0107574
1016.3	0.0106853
1025.94	0.0104685
1035.59	0.0106505
1045.23	0.0107151
1054.87	0.0112101
1064.51	0.0111917
1074.16	0.0115503
1083.8	0.0119265
1093.44	0.0119548
1103.08	0.0123826
1112.72	0.0122361
1122.37	0.0119856
1132.01	0.0116307
1141.65	0.0114919
1151.3	0.0113431
1160.94	0.0114375
1170.58	0.0112678
1180.22	0.0113787
1189.86	0.011451
1199.51	0.0115781
1209.15	0.0114716
1218.79	0.0115145
1228.43	0.0115037
1238.08	0.0115706
1247.72	0.0118622
1257.36	0.0120478
1267	0.012536
1276.64	0.013595
1286.29	0.0134492
1295.93	0.0136951
1305.57	0.0139409
1315.21	0.014513
1324.86	0.0147739
1334.5	0.0150726
1344.14	0.0155037
1353.78	0.0161222
1363.43	0.0166688
1373.07	0.0175546
1382.71	0.0180191
1392.35	0.0187263
1401.99	0.0194921
1411.64	0.0204069
1421.28	0.0209685
1430.92	0.0215252
1440.57	0.0220985
1450.21	0.0226288
1459.85	0.0229953
1469.49	0.0232711
1479.13	0.0237078
1488.78	0.0241545
1498.42	0.0248475
1508.06	0.0257387
1517.7	0.0265387
1527.35	0.0273646
1536.99	0.0283875
1546.63	0.0288654
1556.27	0.0296448
1565.91	0.0299649
1575.56	0.0306734
1585.2	0.0312223
1594.84	0.0320662
1604.48	0.032699
1614.13	0.0332246
1623.77	0.0337838
1633.41	0.0345195
1643.05	0.0351708
1652.7	0.0355913
1662.34	0.0358405
1671.98	0.0364621
1681.62	0.036799
1691.27	0.0372946
1700.91	0.0381229
1710.55	0.0384571
1720.19	0.0393265
1729.84	0.0401723
1739.48	0.0397041
1749.12	0.0396012
1758.76	0.0405701
1768.4	0.0413486
1778.05	0.0419967
1787.69	0.0428676
1797.33	0.0434421
1806.97	0.0442064
1816.62	0.0446705
1826.26	0.0458343
1835.9	0.046269
1845.54	0.0472395
1855.18	0.0478956
1864.83	0.0485423
1874.47	0.0492228
1884.11	0.0501913
1893.75	0.0508086
1903.4	0.051589
1913.04	0.05204
1922.68	0.0530126
1932.32	0.0538286
1941.97	0.0544952
1951.61	0.055179
1961.25	0.057025
1970.89	0.055641
1980.54	0.0598694
1990.18	0.0604505
1999.82	0.0600229
2009.46	0.0604049
2019.11	0.0614956
2028.75	0.0618259
2038.39	0.0629687
2048.03	0.0641672
2057.67	0.06451
2067.32	0.0647422
2076.96	0.0660548
2086.6	0.0667474
2096.24	0.0669532
2105.89	0.0675843
2115.53	0.067636
2125.17	0.0673642
2134.81	0.0676475
2144.45	0.0676893
2154.1	0.0657154
2163.74	0.0736896
2173.38	0.0713705
2183.02	0.0740543
2192.67	0.0744755
2202.31	0.0749247
2211.95	0.0748559
2221.59	0.0768929
2231.24	0.077706
2240.88	0.0785221
2250.52	0.0776291
2260.16	0.0786377
2269.8	0.0796395
2279.45	0.0803081
2289.09	0.0816256
2298.73	0.0811192
2308.38	0.082274
2318.02	0.0829189
2327.66	0.0828493
2337.3	0.0830561
2346.94	0.0837515
2356.59	0.0847917
2366.23	0.0846606
2375.87	0.0848822
2385.51	0.0858963
2395.16	0.0865238
2404.8	0.0875137
2414.44	0.0881677
2424.08	0.0887836
2433.72	0.08978
2443.37	0.0903738
2453.01	0.0909282
2462.65	0.0913341
2472.29	0.0924216
2481.94	0.0926126
2491.58	0.0935957
2501.22	0.0936567
2510.86	0.0947707
2520.51	0.0959824
2530.15	0.0961873
2539.79	0.0972512
2549.43	0.097369
2559.07	0.0985192
2568.72	0.0987199
2578.36	0.100456
2588	0.101009
2597.64	0.100818
2607.29	0.102016
2616.93	0.102348
2626.57	0.102836
2636.21	0.103127
2645.86	0.103544
2655.5	0.103844
2665.14	0.104238
2674.78	0.104494
2684.43	0.105615
2694.07	0.106174
2703.71	0.106542
2713.35	0.107262
2722.99	0.107965
2732.64	0.108591
2742.28	0.109133
2751.92	0.110006
2761.56	0.11031
2771.21	0.111325
2780.85	0.111619
2790.49	0.112439
2800.13	0.113124
2809.78	0.113856
2819.42	0.114832
2829.06	0.115562
2838.7	0.117026
2848.34	0.117653
2857.99	0.118857
2867.63	0.118429
2877.27	0.119211
2886.91	0.119732
2896.56	0.121411
2906.2	0.122404
2915.84	0.123688
2925.48	0.12445
2935.13	0.123525
2944.77	0.122588
2954.41	0.123522
2964.05	0.123537
2973.7	0.123465
2983.34	0.123051
2992.98	0.123787
3002.62	0.124392
3012.26	0.125295
3021.91	0.125883
3031.55	0.126508
3041.19	0.127454
3050.83	0.128026
3060.48	0.128486
3070.12	0.128944
3079.76	0.129627
3089.4	0.130808
3099.05	0.131072
3108.69	0.131206
3118.33	0.13236
3127.97	0.13308
3137.61	0.133533
3147.26	0.133617
3156.9	0.13427
3166.54	0.135293
3176.18	0.135415
3185.83	0.136275
3195.47	0.136912
3205.11	0.137814
3214.75	0.138161
3224.4	0.138721
3234.04	0.138856
3243.68	0.139591
3253.32	0.139332
3262.97	0.140184
3272.61	0.140955
3282.25	0.141124
3291.89	0.141903
3301.53	0.141843
3311.18	0.14248
3320.82	0.143054
3330.46	0.143791
3340.1	0.144739
3349.75	0.144217
3359.39	0.144811
3369.03	0.145034
3378.67	0.145245
3388.32	0.145896
3397.96	0.14607
3407.6	0.146568
3417.24	0.146152
3426.89	0.146458
3436.53	0.146819
3446.17	0.147205
3455.81	0.148381
3465.45	0.147859
3475.1	0.147677
3484.74	0.148118
3494.38	0.149762
3504.02	0.148538
3513.67	0.148873
3523.31	0.149405
3532.95	0.149313
3542.59	0.148957
3552.24	0.149806
3561.88	0.148978
3571.52	0.149234
3581.16	0.150527
3590.8	0.150445
3600.45	0.150167
3610.09	0.15053
3619.73	0.150475
3629.37	0.151364
3639.02	0.151714
3648.66	0.153178
3658.3	0.153691
3667.94	0.153169
3677.59	0.15434
3687.23	0.153062
3696.87	0.154998
3706.51	0.155107
3716.16	0.155901
3725.8	0.156108
3735.44	0.156905
3745.08	0.157271
3754.72	0.157403
3764.37	0.156893
3774.01	0.158151
3783.65	0.158795
3793.29	0.159105
3802.94	0.159705
3812.58	0.160028
3822.22	0.16034
3831.86	0.160419
3841.51	0.161085
3851.15	0.161992
3860.79	0.161756
3870.43	0.163302
3880.07	0.162422
3889.72	0.163329
3899.36	0.163379
3909	0.163545
3918.64	0.163853
3928.29	0.163981
3937.93	0.164669
3947.57	0.164281
3957.21	0.165703
3966.86	0.165744
3976.5	0.166231
3986.14	0.166317
3995.78	0.167927
