Measurement: Infrared, Infrared Data Processed
Mineral: Fairfieldite
Rruff sample: R050539
Ideal chemistry: Ca_2_Mn^2+^(PO_4_)_2_2H_2_O
Locality: Foote mine, Kings Mountain, Cleveland County, North Carolina, USA
Source: University of Arizona Mineral Museum
Description: Transparent tabular crystals associated with fluorapatite
Measured chemistry: Ca_2.00_(Mn^2+^_0.82_Fe^2+^_0.15_Mg_0.03_)_Σ=1_(P_1.00_O_4_)_2_·2H_2_O
x	intensity
399.193	0.0777569
408.835	0.0800693
418.477	0.0894044
428.12	0.0961634
437.762	0.0836305
447.404	0.0876964
457.047	0.0972455
466.689	0.115632
476.331	0.127693
485.974	0.132446
495.616	0.141947
505.258	0.174389
514.901	0.23377
524.543	0.331606
534.185	0.467568
543.828	0.543042
553.47	0.500798
563.112	0.404442
572.755	0.276583
582.397	0.225152
592.039	0.22886
601.682	0.185509
611.324	0.0829155
620.966	0.0515185
630.609	0.0459442
640.251	0.0477783
649.893	0.0522452
659.536	0.052277
669.178	0.0555816
678.82	0.0603298
688.463	0.067735
698.105	0.0777051
707.747	0.0925537
717.39	0.1139
727.032	0.140433
736.674	0.173361
746.317	0.198042
755.959	0.1988
765.601	0.179126
775.244	0.148878
784.886	0.129605
794.528	0.113516
804.171	0.102181
813.813	0.0953109
823.455	0.0944873
833.098	0.100645
842.74	0.112482
852.382	0.129318
862.025	0.148697
871.667	0.171449
881.309	0.195604
890.952	0.195469
900.594	0.177407
910.236	0.177275
919.879	0.203691
929.521	0.266781
939.163	0.320812
948.806	0.311452
958.448	0.419874
968.09	0.484208
977.733	0.465321
987.375	0.410796
997.017	0.339931
1006.66	0.279095
1016.3	0.231028
1025.94	0.194885
1035.59	0.167548
1045.23	0.141167
1054.87	0.113749
1064.51	0.0999476
1074.16	0.113477
1083.8	0.152447
1093.44	0.164515
1103.08	0.154974
1112.72	0.126744
1122.37	0.0919922
1132.01	0.0601972
1141.65	0.0360269
1151.3	0.0224637
1160.94	0.0160517
1170.58	0.0122376
1180.22	0.0101656
1189.86	0.00827727
1199.51	0.00675161
1209.15	0.00557243
1218.79	0.00474967
1228.43	0.00412564
1238.08	0.00351323
1247.72	0.00308811
1257.36	0.00327706
1267	0.00312208
1276.64	0.00328344
1286.29	0.0031048
1295.93	0.00312869
1305.57	0.00317942
1315.21	0.00367286
1324.86	0.00393822
1334.5	0.00389673
1344.14	0.00419301
1353.78	0.0042437
1363.43	0.00474699
1373.07	0.00462946
1382.71	0.00506145
1392.35	0.00562053
1401.99	0.00633583
1411.64	0.00687595
1421.28	0.00710973
1430.92	0.00777622
1440.57	0.00819943
1450.21	0.00878904
1459.85	0.00956855
1469.49	0.0109233
1479.13	0.0130443
1488.78	0.0145266
1498.42	0.0150126
1508.06	0.0143948
1517.7	0.0138011
1527.35	0.0132205
1536.99	0.0136472
1546.63	0.0149806
1556.27	0.0164121
1565.91	0.0184265
1575.56	0.0206088
1585.2	0.0215775
1594.84	0.0208888
1604.48	0.019818
1614.13	0.0187012
1623.77	0.0176887
1633.41	0.016456
1643.05	0.0160458
1652.7	0.014828
1662.34	0.013955
1671.98	0.01303
1681.62	0.0119205
1691.27	0.011339
1700.91	0.0102423
1710.55	0.00919994
1720.19	0.00914921
1729.84	0.00865037
1739.48	0.00726368
1749.12	0.007352
1758.76	0.00811465
1768.4	0.00798261
1778.05	0.00770188
1787.69	0.00748409
1797.33	0.00717626
1806.97	0.00681004
1816.62	0.00616644
1826.26	0.00620785
1835.9	0.00646788
1845.54	0.00621763
1855.18	0.00600989
1864.83	0.00546212
1874.47	0.00547088
1884.11	0.00551464
1893.75	0.00547994
1903.4	0.00530844
1913.04	0.00496746
1922.68	0.00404158
1932.32	0.00491686
1941.97	0.00340388
1951.61	0.0023761
1961.25	0.000852314
1970.89	0.000113466
1980.54	0.00291495
1990.18	0.00225725
1999.82	0.00215414
2009.46	0.00293096
2019.11	0.00269288
2028.75	0.00208875
2038.39	0.00310239
2048.03	0.00423055
2057.67	0.00436206
2067.32	0.00477703
2076.96	0.00498174
2086.6	0.00548887
2096.24	0.00545011
2105.89	0.00700008
2115.53	0.00648722
2125.17	0.00590569
2134.81	0.00500902
2144.45	0.0046029
2154.1	0.00329219
2163.74	0.00515834
2173.38	0.00678194
2183.02	0.005391
2192.67	0.00659082
2202.31	0.00744276
2211.95	0.0081583
2221.59	0.00816229
2231.24	0.00866869
2240.88	0.00988896
2250.52	0.00961787
2260.16	0.0112931
2269.8	0.0125441
2279.45	0.0140836
2289.09	0.0146836
2298.73	0.0154593
2308.38	0.0156962
2318.02	0.0162597
2327.66	0.016127
2337.3	0.0164539
2346.94	0.0162621
2356.59	0.0157311
2366.23	0.0153235
2375.87	0.0159448
2385.51	0.0155875
2395.16	0.014497
2404.8	0.014783
2414.44	0.0147254
2424.08	0.0152304
2433.72	0.0145895
2443.37	0.015359
2453.01	0.0148078
2462.65	0.0148649
2472.29	0.0145565
2481.94	0.01547
2491.58	0.0156332
2501.22	0.0159437
2510.86	0.0157252
2520.51	0.0166315
2530.15	0.0170066
2539.79	0.0164761
2549.43	0.017455
2559.07	0.0168557
2568.72	0.0177845
2578.36	0.017882
2588	0.0178375
2597.64	0.0186417
2607.29	0.0186188
2616.93	0.0189701
2626.57	0.0194684
2636.21	0.0201148
2645.86	0.0202077
2655.5	0.0207461
2665.14	0.02055
2674.78	0.021229
2684.43	0.0219173
2694.07	0.0220648
2703.71	0.0225408
2713.35	0.023548
2722.99	0.0238408
2732.64	0.0244616
2742.28	0.0245914
2751.92	0.0256704
2761.56	0.026299
2771.21	0.0267351
2780.85	0.0273896
2790.49	0.0275371
2800.13	0.0283317
2809.78	0.0290313
2819.42	0.0293068
2829.06	0.0293396
2838.7	0.0300272
2848.34	0.0309033
2857.99	0.0309608
2867.63	0.0311449
2877.27	0.0315699
2886.91	0.0321638
2896.56	0.0324126
2906.2	0.0329619
2915.84	0.0331385
2925.48	0.0337228
2935.13	0.0339747
2944.77	0.034052
2954.41	0.0341553
2964.05	0.0352064
2973.7	0.0349151
2983.34	0.0356543
2992.98	0.0361932
3002.62	0.0364055
3012.26	0.036284
3021.91	0.0365699
3031.55	0.0356636
3041.19	0.0345804
3050.83	0.0344844
3060.48	0.033095
3070.12	0.0319758
3079.76	0.0308184
3089.4	0.030035
3099.05	0.0286353
3108.69	0.0274299
3118.33	0.0263106
3127.97	0.0257818
3137.61	0.024332
3147.26	0.0228297
3156.9	0.0225561
3166.54	0.0213967
3176.18	0.020594
3185.83	0.0196474
3195.47	0.0190329
3205.11	0.018563
3214.75	0.0170479
3224.4	0.0171882
3234.04	0.0163742
3243.68	0.0151828
3253.32	0.0154105
3262.97	0.0141048
3272.61	0.0137123
3282.25	0.0131787
3291.89	0.0126718
3301.53	0.0117758
3311.18	0.011802
3320.82	0.0111771
3330.46	0.0111373
3340.1	0.0100259
3349.75	0.00854844
3359.39	0.00844845
3369.03	0.00841328
3378.67	0.0076376
3388.32	0.00852637
3397.96	0.00697634
3407.6	0.00636303
3417.24	0.00735426
3426.89	0.00753007
3436.53	0.00561844
3446.17	0.0055738
3455.81	0.00627353
3465.45	0.0056357
3475.1	0.0049622
3484.74	0.00525226
3494.38	0.00516679
3504.02	0.00526132
3513.67	0.00520136
3523.31	0.00430534
3532.95	0.00343347
3542.59	0.00422128
3552.24	0.00416431
3561.88	0.00343684
3571.52	0.00304824
3581.16	0.00290651
3590.8	0.00299979
3600.45	0.00281253
3610.09	0.00342034
3619.73	0.00345731
3629.37	0.00341413
3639.02	0.00364993
3648.66	0.00234052
3658.3	0.00296399
3667.94	0.0017067
3677.59	0.00199424
3687.23	0.0023171
3696.87	0.00326508
3706.51	0.00305211
3716.16	0.00145334
3725.8	0.00238923
3735.44	0.00235245
3745.08	0.00271252
3754.72	0.00263771
3764.37	0.00310777
3774.01	0.0035791
3783.65	0.00275574
3793.29	0.00367613
3802.94	0.00294901
3812.58	0.00333075
3822.22	0.00344462
3831.86	0.00232433
3841.51	0.00291479
3851.15	0.00376295
3860.79	0.0029291
3870.43	0.00334617
3880.07	0.00351827
3889.72	0.00318333
3899.36	0.00370864
3909	0.00350985
3918.64	0.00262121
3928.29	0.0031321
3937.93	0.00292853
3947.57	0.00384144
3957.21	0.00332795
3966.86	0.00308691
3976.5	0.00350758
3986.14	0.0037694
3995.78	0.00352498
