Measurement: Infrared, Infrared Data Processed
Mineral: Fayalite
Rruff sample: R070374
Ideal chemistry: Fe^2+^_2_SiO_4_
Locality: Little Lake, Lake County, California, USA
Source: Michael Scott
Description: Large dark brown crystal fragment
Measured chemistry: (Fe^2+^_1.89_Mn^2+^_0.11_)_Î£=2_Si_1.00_O_4_ ; trace amounts of Mg
x	intensity
399.193	0
408.835	0.0360705
418.477	0.0442407
428.12	0.0589339
437.762	0.082817
447.404	0.103197
457.047	0.122235
466.689	0.134784
476.331	0.125856
485.974	0.112443
495.616	0.109617
505.258	0.101331
514.901	0.0861146
524.543	0.0682058
534.185	0.0589369
543.828	0.0653902
553.47	0.0762414
563.112	0.0766076
572.755	0.0656023
582.397	0.0500701
592.039	0.0354798
601.682	0.0263354
611.324	0.0232975
620.966	0.0220484
630.609	0.0215689
640.251	0.0219038
649.893	0.0225538
659.536	0.0240702
669.178	0.0248784
678.82	0.0264204
688.463	0.0285806
698.105	0.0307282
707.747	0.0339211
717.39	0.0374135
727.032	0.0416066
736.674	0.0461703
746.317	0.0516203
755.959	0.0588137
765.601	0.0670403
775.244	0.0767241
784.886	0.0879093
794.528	0.101316
804.171	0.117783
813.813	0.136919
823.455	0.159222
833.098	0.128234
842.74	0.151587
852.382	0.179528
862.025	0.188861
871.667	0.180634
881.309	0.160391
890.952	0.140005
900.594	0.124813
910.236	0.115288
919.879	0.0960889
929.521	0.075135
939.163	0.111188
948.806	0.099892
958.448	0.0769788
968.09	0.0701582
977.733	0.0603919
987.375	0.049139
997.017	0.0389703
1006.66	0.0294404
1016.3	0.0222947
1025.94	0.0187961
1035.59	0.0174459
1045.23	0.0164175
1054.87	0.0156658
1064.51	0.0143139
1074.16	0.0127496
1083.8	0.0119962
1093.44	0.0117346
1103.08	0.0116283
1112.72	0.0115518
1122.37	0.011623
1132.01	0.0110736
1141.65	0.0110224
1151.3	0.01078
1160.94	0.010643
1170.58	0.00984986
1180.22	0.00923817
1189.86	0.00864959
1199.51	0.00813241
1209.15	0.00778292
1218.79	0.00763912
1228.43	0.00810519
1238.08	0.00784034
1247.72	0.00842984
1257.36	0.00868534
1267	0.00869631
1276.64	0.00910074
1286.29	0.00948042
1295.93	0.00975478
1305.57	0.0100297
1315.21	0.0101632
1324.86	0.0104259
1334.5	0.0106368
1344.14	0.0110213
1353.78	0.0117111
1363.43	0.011788
1373.07	0.0118137
1382.71	0.0123914
1392.35	0.0126796
1401.99	0.0131226
1411.64	0.013494
1421.28	0.0138505
1430.92	0.0140348
1440.57	0.0144017
1450.21	0.0146284
1459.85	0.0142862
1469.49	0.0144913
1479.13	0.0148089
1488.78	0.0144726
1498.42	0.0145142
1508.06	0.0148332
1517.7	0.0150505
1527.35	0.0154085
1536.99	0.015548
1546.63	0.0161823
1556.27	0.0165368
1565.91	0.0169681
1575.56	0.0175164
1585.2	0.0180696
1594.84	0.0186189
1604.48	0.0186712
1614.13	0.0192182
1623.77	0.0195639
1633.41	0.0199966
1643.05	0.0203074
1652.7	0.0196633
1662.34	0.0201656
1671.98	0.0196235
1681.62	0.0187946
1691.27	0.0184959
1700.91	0.0179598
1710.55	0.0183832
1720.19	0.0186748
1729.84	0.0190512
1739.48	0.018508
1749.12	0.0180957
1758.76	0.0188511
1768.4	0.0186785
1778.05	0.0188772
1787.69	0.0190999
1797.33	0.0193595
1806.97	0.0194068
1816.62	0.0192007
1826.26	0.0189519
1835.9	0.0193073
1845.54	0.0201229
1855.18	0.0198339
1864.83	0.0199289
1874.47	0.0192585
1884.11	0.0197234
1893.75	0.0194413
1903.4	0.0197929
1913.04	0.0201481
1922.68	0.0197175
1932.32	0.0195404
1941.97	0.0196593
1951.61	0.0190154
1961.25	0.0191365
1970.89	0.017361
1980.54	0.021108
1990.18	0.0225899
1999.82	0.0195129
2009.46	0.0204492
2019.11	0.0225432
2028.75	0.0226067
2038.39	0.0229714
2048.03	0.0246902
2057.67	0.0237536
2067.32	0.0240807
2076.96	0.023971
2086.6	0.0251728
2096.24	0.0257582
2105.89	0.0260444
2115.53	0.0250294
2125.17	0.0251216
2134.81	0.0244848
2144.45	0.0223296
2154.1	0.0205623
2163.74	0.0248027
2173.38	0.0262391
2183.02	0.0281687
2192.67	0.0254257
2202.31	0.0246979
2211.95	0.0258467
2221.59	0.0264724
2231.24	0.0271218
2240.88	0.0283783
2250.52	0.027983
2260.16	0.0286402
2269.8	0.0288634
2279.45	0.0294838
2289.09	0.0291668
2298.73	0.0297875
2308.38	0.0299237
2318.02	0.0301679
2327.66	0.0302408
2337.3	0.0299304
2346.94	0.0299891
2356.59	0.0299467
2366.23	0.0298648
2375.87	0.030139
2385.51	0.0296587
2395.16	0.0296945
2404.8	0.0298804
2414.44	0.0297191
2424.08	0.0309973
2433.72	0.0301095
2443.37	0.0312314
2453.01	0.0304164
2462.65	0.0298503
2472.29	0.0298968
2481.94	0.0310803
2491.58	0.0317729
2501.22	0.0316827
2510.86	0.0312011
2520.51	0.0303724
2530.15	0.0319719
2539.79	0.031793
2549.43	0.0316963
2559.07	0.0308459
2568.72	0.0321841
2578.36	0.0326926
2588	0.0331534
2597.64	0.0334119
2607.29	0.0337258
2616.93	0.0332346
2626.57	0.0351622
2636.21	0.0358479
2645.86	0.0350512
2655.5	0.0356728
2665.14	0.0360368
2674.78	0.0354341
2684.43	0.0351904
2694.07	0.0353774
2703.71	0.0367322
2713.35	0.0362886
2722.99	0.0359558
2732.64	0.0365862
2742.28	0.0366617
2751.92	0.0373075
2761.56	0.0366453
2771.21	0.0371219
2780.85	0.0377087
2790.49	0.0376863
2800.13	0.0373978
2809.78	0.0382852
2819.42	0.0392491
2829.06	0.0383287
2838.7	0.039537
2848.34	0.0395792
2857.99	0.038634
2867.63	0.0378239
2877.27	0.0390094
2886.91	0.0402876
2896.56	0.0399919
2906.2	0.0404539
2915.84	0.0416706
2925.48	0.0389842
2935.13	0.0386446
2944.77	0.0391219
2954.41	0.0402105
2964.05	0.0401367
2973.7	0.0401848
2983.34	0.0404303
2992.98	0.0406434
3002.62	0.0415707
3012.26	0.0416925
3021.91	0.0415316
3031.55	0.0426596
3041.19	0.0428904
3050.83	0.043183
3060.48	0.0444964
3070.12	0.0449039
3079.76	0.0450877
3089.4	0.0456556
3099.05	0.0457749
3108.69	0.0479591
3118.33	0.0469719
3127.97	0.0481159
3137.61	0.0489629
3147.26	0.0482508
3156.9	0.0491949
3166.54	0.050418
3176.18	0.051923
3185.83	0.0506455
3195.47	0.0510048
3205.11	0.0514064
3214.75	0.0529022
3224.4	0.0529573
3234.04	0.0541781
3243.68	0.0530164
3253.32	0.0539591
3262.97	0.0543417
3272.61	0.0547851
3282.25	0.0545355
3291.89	0.0547503
3301.53	0.0541608
3311.18	0.056157
3320.82	0.0558897
3330.46	0.0556695
3340.1	0.056651
3349.75	0.0550363
3359.39	0.0569004
3369.03	0.0564214
3378.67	0.0558624
3388.32	0.0569368
3397.96	0.0572343
3407.6	0.0551337
3417.24	0.0560392
3426.89	0.0548997
3436.53	0.0562215
3446.17	0.0544894
3455.81	0.0547104
3465.45	0.054372
3475.1	0.0548712
3484.74	0.0543792
3494.38	0.0539843
3504.02	0.0535722
3513.67	0.0524514
3523.31	0.0509292
3532.95	0.0535709
3542.59	0.0536956
3552.24	0.052406
3561.88	0.0510006
3571.52	0.0476595
3581.16	0.0520784
3590.8	0.04991
3600.45	0.0514873
3610.09	0.0513172
3619.73	0.0483644
3629.37	0.0489685
3639.02	0.0497025
3648.66	0.0469658
3658.3	0.0495487
3667.94	0.0488894
3677.59	0.0488556
3687.23	0.050041
3696.87	0.0508386
3706.51	0.0502252
3716.16	0.0488996
3725.8	0.0506856
3735.44	0.0505775
3745.08	0.0490595
3754.72	0.0498164
3764.37	0.0524138
3774.01	0.0513122
3783.65	0.0511676
3793.29	0.0533186
3802.94	0.0520531
3812.58	0.0520412
3822.22	0.0507756
3831.86	0.0523402
3841.51	0.0531414
3851.15	0.0534142
3860.79	0.0555884
3870.43	0.0545718
3880.07	0.0528
3889.72	0.0554151
3899.36	0.0554162
3909	0.0544596
3918.64	0.0567156
3928.29	0.0561238
3937.93	0.0578303
3947.57	0.0567023
3957.21	0.0562364
3966.86	0.0554931
3976.5	0.0535003
3986.14	0.0546696
3995.78	0.0558344
