Measurement: Infrared, Infrared Data Processed
Mineral: Ferberite
Rruff sample: R040044
Ideal chemistry: Fe^2+^W^6+^O_4_
Locality: Chocote, Bolivia
Source: University of Arizona Mineral Museum
Description: Black tabular single crystal
Measured chemistry: (Fe_0.82_Mn_0.08_Mg_0.07_Pb_0.03_)_Î£=1_W_1.00_O_4_
x	intensity
399.193	0
408.835	0.239372
418.477	0.235036
428.12	0.237687
437.762	0.258117
447.404	0.28165
457.047	0.294188
466.689	0.294395
476.331	0.291764
485.974	0.302783
495.616	0.310564
505.258	0.31018
514.901	0.304984
524.543	0.291495
534.185	0.27944
543.828	0.272364
553.47	0.274386
563.112	0.285309
572.755	0.297142
582.397	0.304053
592.039	0.310182
601.682	0.312145
611.324	0.310136
620.966	0.305758
630.609	0.298271
640.251	0.289356
649.893	0.2782
659.536	0.266516
669.178	0.254219
678.82	0.239514
688.463	0.22575
698.105	0.21233
707.747	0.197673
717.39	0.180844
727.032	0.162525
736.674	0.145209
746.317	0.135627
755.959	0.141526
765.601	0.156793
775.244	0.173154
784.886	0.187533
794.528	0.197859
804.171	0.20354
813.813	0.202593
823.455	0.196813
833.098	0.185732
842.74	0.171991
852.382	0.158337
862.025	0.141402
871.667	0.116422
881.309	0.0843137
890.952	0.0501676
900.594	0.0301849
910.236	0.023805
919.879	0.0216141
929.521	0.0212966
939.163	0.0202845
948.806	0.019788
958.448	0.0198003
968.09	0.0199772
977.733	0.0209438
987.375	0.0221981
997.017	0.0235091
1006.66	0.0253518
1016.3	0.0261599
1025.94	0.028422
1035.59	0.0297738
1045.23	0.030384
1054.87	0.0313527
1064.51	0.0325547
1074.16	0.0336068
1083.8	0.0352054
1093.44	0.0369955
1103.08	0.0388284
1112.72	0.0405337
1122.37	0.0417875
1132.01	0.0430986
1141.65	0.044539
1151.3	0.0464971
1160.94	0.0481461
1170.58	0.0494427
1180.22	0.0508286
1189.86	0.0521828
1199.51	0.053269
1209.15	0.0547672
1218.79	0.0560252
1228.43	0.0582632
1238.08	0.060096
1247.72	0.0619851
1257.36	0.0636474
1267	0.0654855
1276.64	0.0673581
1286.29	0.0692373
1295.93	0.0713172
1305.57	0.0731883
1315.21	0.0754231
1324.86	0.0769261
1334.5	0.0788285
1344.14	0.0805865
1353.78	0.0821596
1363.43	0.084357
1373.07	0.085836
1382.71	0.0880347
1392.35	0.0901903
1401.99	0.0927975
1411.64	0.0960344
1421.28	0.0986858
1430.92	0.100818
1440.57	0.102361
1450.21	0.103629
1459.85	0.104041
1469.49	0.103909
1479.13	0.10416
1488.78	0.104837
1498.42	0.105809
1508.06	0.107094
1517.7	0.108734
1527.35	0.110223
1536.99	0.111873
1546.63	0.113706
1556.27	0.114881
1565.91	0.11638
1575.56	0.118052
1585.2	0.119495
1594.84	0.120903
1604.48	0.122253
1614.13	0.123796
1623.77	0.125212
1633.41	0.126621
1643.05	0.127568
1652.7	0.128318
1662.34	0.129144
1671.98	0.129445
1681.62	0.129994
1691.27	0.130708
1700.91	0.131371
1710.55	0.132539
1720.19	0.133811
1729.84	0.135027
1739.48	0.136126
1749.12	0.135751
1758.76	0.136022
1768.4	0.136584
1778.05	0.137211
1787.69	0.138618
1797.33	0.140118
1806.97	0.141096
1816.62	0.142134
1826.26	0.142815
1835.9	0.144622
1845.54	0.145688
1855.18	0.147135
1864.83	0.148813
1874.47	0.1491
1884.11	0.150012
1893.75	0.151738
1903.4	0.153526
1913.04	0.152958
1922.68	0.15506
1932.32	0.155505
1941.97	0.157451
1951.61	0.157458
1961.25	0.15998
1970.89	0.161284
1980.54	0.164027
1990.18	0.161867
1999.82	0.1631
2009.46	0.165089
2019.11	0.165526
2028.75	0.167996
2038.39	0.167918
2048.03	0.169819
2057.67	0.170024
2067.32	0.17077
2076.96	0.172553
2086.6	0.173199
2096.24	0.173155
2105.89	0.175274
2115.53	0.175034
2125.17	0.175398
2134.81	0.175471
2144.45	0.176321
2154.1	0.175191
2163.74	0.179593
2173.38	0.181782
2183.02	0.180207
2192.67	0.184168
2202.31	0.186223
2211.95	0.185352
2221.59	0.186388
2231.24	0.188126
2240.88	0.186992
2250.52	0.188339
2260.16	0.190129
2269.8	0.189872
2279.45	0.190662
2289.09	0.1926
2298.73	0.192626
2308.38	0.193977
2318.02	0.195431
2327.66	0.194801
2337.3	0.195614
2346.94	0.196595
2356.59	0.197483
2366.23	0.19734
2375.87	0.197846
2385.51	0.198432
2395.16	0.199407
2404.8	0.200635
2414.44	0.201991
2424.08	0.202836
2433.72	0.203599
2443.37	0.203467
2453.01	0.205955
2462.65	0.205864
2472.29	0.205445
2481.94	0.206078
2491.58	0.207499
2501.22	0.209074
2510.86	0.208127
2520.51	0.209657
2530.15	0.210217
2539.79	0.211445
2549.43	0.211973
2559.07	0.213229
2568.72	0.214471
2578.36	0.214837
2588	0.216089
2597.64	0.21587
2607.29	0.217989
2616.93	0.217929
2626.57	0.218985
2636.21	0.219527
2645.86	0.221228
2655.5	0.221914
2665.14	0.222195
2674.78	0.221566
2684.43	0.22297
2694.07	0.224213
2703.71	0.225303
2713.35	0.226199
2722.99	0.226427
2732.64	0.226773
2742.28	0.228922
2751.92	0.229704
2761.56	0.229853
2771.21	0.230841
2780.85	0.232013
2790.49	0.231822
2800.13	0.232996
2809.78	0.233379
2819.42	0.234542
2829.06	0.236013
2838.7	0.235875
2848.34	0.234949
2857.99	0.235925
2867.63	0.237615
2877.27	0.23935
2886.91	0.239722
2896.56	0.239161
2906.2	0.240766
2915.84	0.240286
2925.48	0.239274
2935.13	0.239792
2944.77	0.241075
2954.41	0.243671
2964.05	0.243739
2973.7	0.243795
2983.34	0.245495
2992.98	0.245439
3002.62	0.246459
3012.26	0.247496
3021.91	0.249331
3031.55	0.249596
3041.19	0.250861
3050.83	0.252004
3060.48	0.253936
3070.12	0.255188
3079.76	0.254814
3089.4	0.256281
3099.05	0.256869
3108.69	0.258413
3118.33	0.258476
3127.97	0.258875
3137.61	0.260256
3147.26	0.260206
3156.9	0.261346
3166.54	0.261466
3176.18	0.264266
3185.83	0.264166
3195.47	0.265726
3205.11	0.264876
3214.75	0.266399
3224.4	0.266373
3234.04	0.266361
3243.68	0.267895
3253.32	0.269378
3262.97	0.269451
3272.61	0.270745
3282.25	0.269186
3291.89	0.270552
3301.53	0.272456
3311.18	0.270279
3320.82	0.272904
3330.46	0.272
3340.1	0.274069
3349.75	0.272186
3359.39	0.273318
3369.03	0.274365
3378.67	0.2745
3388.32	0.275457
3397.96	0.27627
3407.6	0.275919
3417.24	0.276387
3426.89	0.277133
3436.53	0.277029
3446.17	0.278065
3455.81	0.279021
3465.45	0.278702
3475.1	0.276405
3484.74	0.279266
3494.38	0.277642
3504.02	0.278009
3513.67	0.279768
3523.31	0.277778
3532.95	0.279049
3542.59	0.277444
3552.24	0.277692
3561.88	0.278543
3571.52	0.278019
3581.16	0.278698
3590.8	0.281685
3600.45	0.281948
3610.09	0.282458
3619.73	0.284937
3629.37	0.281686
3639.02	0.284226
3648.66	0.286578
3658.3	0.283835
3667.94	0.284444
3677.59	0.285037
3687.23	0.287045
3696.87	0.288815
3706.51	0.28837
3716.16	0.289273
3725.8	0.288632
3735.44	0.286839
3745.08	0.290272
3754.72	0.291751
3764.37	0.292002
3774.01	0.292412
3783.65	0.293959
3793.29	0.292699
3802.94	0.296906
3812.58	0.29452
3822.22	0.29571
3831.86	0.297797
3841.51	0.294362
3851.15	0.297986
3860.79	0.29846
3870.43	0.29873
3880.07	0.300741
3889.72	0.297693
3899.36	0.300736
3909	0.299431
3918.64	0.302001
3928.29	0.300254
3937.93	0.303184
3947.57	0.301744
3957.21	0.303377
3966.86	0.303569
3976.5	0.302251
3986.14	0.306602
3995.78	0.305055
