Measurement: Infrared, Infrared Data Processed
Mineral: Ferberite
Rruff sample: R050632
Ideal chemistry: Fe^2+^W^6+^O_4_
Locality: Chance mine, Boulder, Colorado, USA
Source: University of Arizona Mineral Museum
Description: Dark brown rectangular prismatic crystals
Measured chemistry: Fe^2+^_1.00_WO_4_
x	intensity
399.193	0.248944
408.835	0.260987
418.477	0.265985
428.12	0.26865
437.762	0.285305
447.404	0.305063
457.047	0.316538
466.689	0.318081
476.331	0.328932
485.974	0.339678
495.616	0.343112
505.258	0.341722
514.901	0.334092
524.543	0.322178
534.185	0.309891
543.828	0.310549
553.47	0.31896
563.112	0.329201
572.755	0.338024
582.397	0.342792
592.039	0.346065
601.682	0.345095
611.324	0.339833
620.966	0.331863
630.609	0.323757
640.251	0.312885
649.893	0.300868
659.536	0.288597
669.178	0.27533
678.82	0.259501
688.463	0.244759
698.105	0.22953
707.747	0.212433
717.39	0.194895
727.032	0.176923
736.674	0.162304
746.317	0.159323
755.959	0.172626
765.601	0.196108
775.244	0.218319
784.886	0.239078
794.528	0.249682
804.171	0.254098
813.813	0.247775
823.455	0.234485
833.098	0.215199
842.74	0.195178
852.382	0.178448
862.025	0.158391
871.667	0.127363
881.309	0.0873904
890.952	0.0502684
900.594	0.0335493
910.236	0.0283274
919.879	0.0271268
929.521	0.0275264
939.163	0.0252409
948.806	0.0246631
958.448	0.0238652
968.09	0.0237307
977.733	0.0236085
987.375	0.0237639
997.017	0.0244121
1006.66	0.0254723
1016.3	0.027309
1025.94	0.028723
1035.59	0.0307858
1045.23	0.0318803
1054.87	0.0324674
1064.51	0.0341164
1074.16	0.0366577
1083.8	0.0379989
1093.44	0.039573
1103.08	0.0411842
1112.72	0.0417115
1122.37	0.0422378
1132.01	0.0438469
1141.65	0.0458733
1151.3	0.0474338
1160.94	0.0483108
1170.58	0.0485636
1180.22	0.0488307
1189.86	0.0501078
1199.51	0.05129
1209.15	0.0524378
1218.79	0.0536585
1228.43	0.0556156
1238.08	0.0570251
1247.72	0.0589624
1257.36	0.0608818
1267	0.0630565
1276.64	0.0655846
1286.29	0.0667749
1295.93	0.0682917
1305.57	0.070352
1315.21	0.0720425
1324.86	0.0734278
1334.5	0.0756354
1344.14	0.077289
1353.78	0.0791415
1363.43	0.0805787
1373.07	0.082305
1382.71	0.0842544
1392.35	0.086647
1401.99	0.0887677
1411.64	0.0913414
1421.28	0.092941
1430.92	0.0946159
1440.57	0.0961881
1450.21	0.0975347
1459.85	0.0990771
1469.49	0.0992333
1479.13	0.100154
1488.78	0.101477
1498.42	0.103881
1508.06	0.105999
1517.7	0.107873
1527.35	0.109764
1536.99	0.111894
1546.63	0.114032
1556.27	0.116186
1565.91	0.118168
1575.56	0.119847
1585.2	0.121765
1594.84	0.123262
1604.48	0.125959
1614.13	0.127986
1623.77	0.129857
1633.41	0.131796
1643.05	0.133406
1652.7	0.133903
1662.34	0.134302
1671.98	0.134798
1681.62	0.136178
1691.27	0.1371
1700.91	0.138059
1710.55	0.139162
1720.19	0.140246
1729.84	0.141943
1739.48	0.141798
1749.12	0.141403
1758.76	0.142901
1768.4	0.143499
1778.05	0.14444
1787.69	0.145858
1797.33	0.147748
1806.97	0.149381
1816.62	0.15072
1826.26	0.152776
1835.9	0.155099
1845.54	0.155303
1855.18	0.157607
1864.83	0.158262
1874.47	0.160633
1884.11	0.163475
1893.75	0.16305
1903.4	0.1643
1913.04	0.166314
1922.68	0.167987
1932.32	0.168617
1941.97	0.171575
1951.61	0.171603
1961.25	0.174533
1970.89	0.1752
1980.54	0.18144
1990.18	0.177462
1999.82	0.180236
2009.46	0.182074
2019.11	0.181437
2028.75	0.183124
2038.39	0.185642
2048.03	0.183059
2057.67	0.18612
2067.32	0.188699
2076.96	0.190725
2086.6	0.189528
2096.24	0.190694
2105.89	0.196521
2115.53	0.195441
2125.17	0.193738
2134.81	0.195068
2144.45	0.197646
2154.1	0.195248
2163.74	0.201893
2173.38	0.203033
2183.02	0.201664
2192.67	0.205225
2202.31	0.205923
2211.95	0.202937
2221.59	0.208527
2231.24	0.210171
2240.88	0.212481
2250.52	0.21243
2260.16	0.214858
2269.8	0.213284
2279.45	0.214433
2289.09	0.216145
2298.73	0.216952
2308.38	0.21714
2318.02	0.220303
2327.66	0.219618
2337.3	0.220257
2346.94	0.220911
2356.59	0.223129
2366.23	0.223809
2375.87	0.224118
2385.51	0.225538
2395.16	0.227464
2404.8	0.227982
2414.44	0.229324
2424.08	0.230363
2433.72	0.231761
2443.37	0.234279
2453.01	0.234594
2462.65	0.23601
2472.29	0.236664
2481.94	0.238134
2491.58	0.238232
2501.22	0.238929
2510.86	0.240556
2520.51	0.244033
2530.15	0.24425
2539.79	0.244881
2549.43	0.245355
2559.07	0.248231
2568.72	0.248073
2578.36	0.248903
2588	0.250812
2597.64	0.251482
2607.29	0.251543
2616.93	0.252108
2626.57	0.256555
2636.21	0.256334
2645.86	0.257275
2655.5	0.257989
2665.14	0.258075
2674.78	0.258946
2684.43	0.261465
2694.07	0.261874
2703.71	0.262766
2713.35	0.263789
2722.99	0.266776
2732.64	0.266666
2742.28	0.268569
2751.92	0.269006
2761.56	0.270669
2771.21	0.272438
2780.85	0.270929
2790.49	0.274526
2800.13	0.276001
2809.78	0.277322
2819.42	0.278371
2829.06	0.279957
2838.7	0.282757
2848.34	0.283418
2857.99	0.281733
2867.63	0.284681
2877.27	0.285857
2886.91	0.286565
2896.56	0.289206
2906.2	0.292677
2915.84	0.290427
2925.48	0.290092
2935.13	0.289903
2944.77	0.291082
2954.41	0.291854
2964.05	0.293839
2973.7	0.29437
2983.34	0.2955
2992.98	0.295745
3002.62	0.298633
3012.26	0.297195
3021.91	0.300323
3031.55	0.302341
3041.19	0.30412
3050.83	0.303972
3060.48	0.305795
3070.12	0.308307
3079.76	0.308208
3089.4	0.308972
3099.05	0.309941
3108.69	0.309203
3118.33	0.309698
3127.97	0.315948
3137.61	0.314326
3147.26	0.317073
3156.9	0.318135
3166.54	0.321536
3176.18	0.320663
3185.83	0.321373
3195.47	0.326385
3205.11	0.323877
3214.75	0.325433
3224.4	0.325626
3234.04	0.325226
3243.68	0.328479
3253.32	0.330445
3262.97	0.330191
3272.61	0.330266
3282.25	0.331546
3291.89	0.332027
3301.53	0.336928
3311.18	0.337328
3320.82	0.337004
3330.46	0.338467
3340.1	0.338913
3349.75	0.340405
3359.39	0.339775
3369.03	0.341253
3378.67	0.345762
3388.32	0.344863
3397.96	0.348617
3407.6	0.344536
3417.24	0.344208
3426.89	0.348155
3436.53	0.349855
3446.17	0.344705
3455.81	0.34827
3465.45	0.348697
3475.1	0.349977
3484.74	0.350892
3494.38	0.349943
3504.02	0.349379
3513.67	0.349029
3523.31	0.347917
3532.95	0.350713
3542.59	0.352474
3552.24	0.349316
3561.88	0.349599
3571.52	0.347298
3581.16	0.351654
3590.8	0.353467
3600.45	0.351538
3610.09	0.348857
3619.73	0.352084
3629.37	0.349885
3639.02	0.354632
3648.66	0.354697
3658.3	0.353596
3667.94	0.358037
3677.59	0.361312
3687.23	0.358807
3696.87	0.3587
3706.51	0.358139
3716.16	0.363967
3725.8	0.360047
3735.44	0.362925
3745.08	0.368274
3754.72	0.365867
3764.37	0.370339
3774.01	0.363579
3783.65	0.368133
3793.29	0.367568
3802.94	0.375184
3812.58	0.37441
3822.22	0.37613
3831.86	0.379263
3841.51	0.376833
3851.15	0.380534
3860.79	0.375139
3870.43	0.378928
3880.07	0.38225
3889.72	0.383484
3899.36	0.385521
3909	0.38171
3918.64	0.386153
3928.29	0.390081
3937.93	0.388593
3947.57	0.389362
3957.21	0.38665
3966.86	0.395434
3976.5	0.392664
3986.14	0.389289
3995.78	0.396387
