Measurement: Infrared, Infrared Data Processed
Mineral: Ferro-edenite
Rruff sample: R060044
Ideal chemistry: NaCa_2_Fe^2+^_5_(Si_7_Al)O_22_(OH)_2_
Locality: Barkevik, Norway
Source: University of Arizona Mineral Museum
Description: Black cleavage fragment
Measured chemistry: (Na_0.68_K_0.32_)(Ca_1.50_Na_0.50_)_Σ=2_(Fe^2+^_3.50_Mg_0.75_Fe^3+^_0.25_Ti_0.25_Mn_0.20_Al_0.05_)_Σ=5_(Si_6.64_Al_1.36_)_Σ=8_O_22_(OH)_2_
x	intensity
399.193	0.293282
408.835	0.303912
418.477	0.325532
428.12	0.320363
437.762	0.349143
447.404	0.34468
457.047	0.314607
466.689	0.262224
476.331	0.230399
485.974	0.234725
495.616	0.230622
505.258	0.209887
514.901	0.189025
524.543	0.165819
534.185	0.132142
543.828	0.103141
553.47	0.0829514
563.112	0.070894
572.755	0.0652296
582.397	0.0715758
592.039	0.0862909
601.682	0.104391
611.324	0.110071
620.966	0.108255
630.609	0.108103
640.251	0.108953
649.893	0.111816
659.536	0.111143
669.178	0.110813
678.82	0.102794
688.463	0.0969423
698.105	0.0932106
707.747	0.0913915
717.39	0.101165
727.032	0.111211
736.674	0.109862
746.317	0.110772
755.959	0.114088
765.601	0.121229
775.244	0.126324
784.886	0.125618
794.528	0.122387
804.171	0.123868
813.813	0.138448
823.455	0.168801
833.098	0.212679
842.74	0.265294
852.382	0.309683
862.025	0.342532
871.667	0.377199
881.309	0.414342
890.952	0.446208
900.594	0.47557
910.236	0.488193
919.879	0.486864
929.521	0.476669
939.163	0.456702
948.806	0.425465
958.448	0.393377
968.09	0.3567
977.733	0.315366
987.375	0.274109
997.017	0.239221
1006.66	0.216919
1016.3	0.20771
1025.94	0.201689
1035.59	0.19793
1045.23	0.188143
1054.87	0.169082
1064.51	0.144605
1074.16	0.119984
1083.8	0.100736
1093.44	0.0893104
1103.08	0.081971
1112.72	0.0625118
1122.37	0.0398847
1132.01	0.0250549
1141.65	0.018428
1151.3	0.015577
1160.94	0.0136788
1170.58	0.0116104
1180.22	0.00943068
1189.86	0.00827806
1199.51	0.00760361
1209.15	0.00725028
1218.79	0.00617522
1228.43	0.00557081
1238.08	0.00559477
1247.72	0.00597414
1257.36	0.00526447
1267	0.00565202
1276.64	0.00620504
1286.29	0.006316
1295.93	0.00587872
1305.57	0.00511701
1315.21	0.00584107
1324.86	0.0061386
1334.5	0.00594963
1344.14	0.00634172
1353.78	0.00673784
1363.43	0.00737708
1373.07	0.00801374
1382.71	0.00894139
1392.35	0.00959034
1401.99	0.0102199
1411.64	0.010886
1421.28	0.0106641
1430.92	0.0109117
1440.57	0.0105096
1450.21	0.0105761
1459.85	0.0105113
1469.49	0.0100654
1479.13	0.00959113
1488.78	0.00975255
1498.42	0.010623
1508.06	0.010614
1517.7	0.0109473
1527.35	0.0111158
1536.99	0.0108436
1546.63	0.0121856
1556.27	0.012309
1565.91	0.0124391
1575.56	0.0116278
1585.2	0.0124665
1594.84	0.0124948
1604.48	0.0125981
1614.13	0.0117967
1623.77	0.0121494
1633.41	0.0113255
1643.05	0.0123078
1652.7	0.0116962
1662.34	0.0107987
1671.98	0.0104879
1681.62	0.00987619
1691.27	0.00989743
1700.91	0.00875247
1710.55	0.008352
1720.19	0.00870407
1729.84	0.00930278
1739.48	0.00744811
1749.12	0.00729616
1758.76	0.00791297
1768.4	0.00819362
1778.05	0.00758833
1787.69	0.00858393
1797.33	0.00778725
1806.97	0.00774268
1816.62	0.00644299
1826.26	0.00693243
1835.9	0.00732306
1845.54	0.00745898
1855.18	0.00668942
1864.83	0.00649986
1874.47	0.00806018
1884.11	0.00631029
1893.75	0.00655527
1903.4	0.00710921
1913.04	0.00660126
1922.68	0.00733033
1932.32	0.00590952
1941.97	0.00272594
1951.61	0.0059728
1961.25	7.05107e-05
1970.89	-0.000186487
1980.54	0.00706015
1990.18	0.00394597
1999.82	0.00494628
2009.46	0.00207729
2019.11	0.0057406
2028.75	0.00624658
2038.39	0.00520661
2048.03	0.00680698
2057.67	0.00709347
2067.32	0.00972758
2076.96	0.0103115
2086.6	0.00976088
2096.24	0.00922407
2105.89	0.00810525
2115.53	0.00962068
2125.17	0.00947954
2134.81	0.00352569
2144.45	0.00710784
2154.1	0.00399181
2163.74	0.0136264
2173.38	0.00387193
2183.02	0.00928565
2192.67	0.0113757
2202.31	0.0108732
2211.95	0.00795863
2221.59	0.00826783
2231.24	0.012618
2240.88	0.0138792
2250.52	0.0157247
2260.16	0.0123931
2269.8	0.0152023
2279.45	0.0175543
2289.09	0.0195526
2298.73	0.0160885
2308.38	0.0169222
2318.02	0.0174218
2327.66	0.0167631
2337.3	0.0155636
2346.94	0.0160161
2356.59	0.0158857
2366.23	0.015886
2375.87	0.0159585
2385.51	0.0165599
2395.16	0.0165247
2404.8	0.0159038
2414.44	0.0162423
2424.08	0.0164352
2433.72	0.0174322
2443.37	0.0177019
2453.01	0.0188558
2462.65	0.0171225
2472.29	0.0172719
2481.94	0.0165426
2491.58	0.0201445
2501.22	0.0177692
2510.86	0.0181287
2520.51	0.0182215
2530.15	0.0165255
2539.79	0.0183022
2549.43	0.0201746
2559.07	0.0210549
2568.72	0.0209107
2578.36	0.0174829
2588	0.0195779
2597.64	0.0210264
2607.29	0.0209896
2616.93	0.0208302
2626.57	0.0220145
2636.21	0.0218534
2645.86	0.0210722
2655.5	0.0222184
2665.14	0.0213447
2674.78	0.0219358
2684.43	0.0220035
2694.07	0.0219986
2703.71	0.0219561
2713.35	0.0218512
2722.99	0.0216297
2732.64	0.0216135
2742.28	0.0241834
2751.92	0.0236619
2761.56	0.0250371
2771.21	0.0248212
2780.85	0.0244008
2790.49	0.0240177
2800.13	0.0235515
2809.78	0.025087
2819.42	0.0253865
2829.06	0.0256499
2838.7	0.0270621
2848.34	0.0266586
2857.99	0.0282558
2867.63	0.0292767
2877.27	0.0281564
2886.91	0.0273464
2896.56	0.0297307
2906.2	0.0304998
2915.84	0.0305471
2925.48	0.0331941
2935.13	0.0316112
2944.77	0.0300308
2954.41	0.0330213
2964.05	0.0326915
2973.7	0.0304832
2983.34	0.0323091
2992.98	0.0314118
3002.62	0.030963
3012.26	0.0308128
3021.91	0.0324375
3031.55	0.0333385
3041.19	0.0329653
3050.83	0.036235
3060.48	0.0347605
3070.12	0.0338625
3079.76	0.037205
3089.4	0.0330055
3099.05	0.0343006
3108.69	0.0356459
3118.33	0.0354199
3127.97	0.0373204
3137.61	0.0376766
3147.26	0.0359472
3156.9	0.0375043
3166.54	0.0392597
3176.18	0.0371359
3185.83	0.0395196
3195.47	0.0420699
3205.11	0.0424854
3214.75	0.0411572
3224.4	0.0406575
3234.04	0.0409932
3243.68	0.0409327
3253.32	0.0405772
3262.97	0.042613
3272.61	0.0435739
3282.25	0.0412819
3291.89	0.0403728
3301.53	0.0412904
3311.18	0.041485
3320.82	0.0437006
3330.46	0.0396221
3340.1	0.0456369
3349.75	0.0395398
3359.39	0.0440019
3369.03	0.0420105
3378.67	0.0419649
3388.32	0.0438185
3397.96	0.0431637
3407.6	0.0459216
3417.24	0.0457609
3426.89	0.0433252
3436.53	0.0442978
3446.17	0.0413386
3455.81	0.0420892
3465.45	0.0408043
3475.1	0.0452126
3484.74	0.045144
3494.38	0.0405867
3504.02	0.0424432
3513.67	0.042824
3523.31	0.0403491
3532.95	0.04444
3542.59	0.0411036
3552.24	0.0405097
3561.88	0.0399573
3571.52	0.0385587
3581.16	0.038219
3590.8	0.0377058
3600.45	0.0361332
3610.09	0.0357069
3619.73	0.0323533
3629.37	0.0396449
3639.02	0.0397077
3648.66	0.0335678
3658.3	0.0392312
3667.94	0.0376519
3677.59	0.0275034
3687.23	0.0306557
3696.87	0.0270037
3706.51	0.0323358
3716.16	0.0297417
3725.8	0.0312617
3735.44	0.0335361
3745.08	0.0345955
3754.72	0.0309843
3764.37	0.0288445
3774.01	0.0286564
3783.65	0.0302467
3793.29	0.031436
3802.94	0.0283805
3812.58	0.0284712
3822.22	0.0340281
3831.86	0.0295835
3841.51	0.0320894
3851.15	0.029699
3860.79	0.0302009
3870.43	0.0276761
3880.07	0.0272109
3889.72	0.0270125
3899.36	0.028879
3909	0.0307583
3918.64	0.0295213
3928.29	0.0308607
3937.93	0.0310599
3947.57	0.0301863
3957.21	0.0315288
3966.86	0.032326
3976.5	0.0244367
3986.14	0.0301319
3995.78	0.0334742
