Measurement: Infrared, Infrared Data Processed
Mineral: Ferrimolybdite
Rruff sample: R050566
Ideal chemistry: Fe^3+^_2_(Mo^6+^O_4_)_3_7H_2_O
Locality: Kingman, Arizona, USA
Source: University of Arizona Mineral Museum
Description: Yellow fibrous aggregate
Measured chemistry: Wavelength dispersive spectroscopy (WDS) scanning shows Mo and Fe only.
x	intensity
399.193	0.234761
408.835	0.236304
418.477	0.223014
428.12	0.217045
437.762	0.202827
447.404	0.200631
457.047	0.195149
466.689	0.192292
476.331	0.196547
485.974	0.198718
495.616	0.214472
505.258	0.238619
514.901	0.263164
524.543	0.279113
534.185	0.280505
543.828	0.274887
553.47	0.269616
563.112	0.264877
572.755	0.255422
582.397	0.246681
592.039	0.23359
601.682	0.230103
611.324	0.238884
620.966	0.251157
630.609	0.269884
640.251	0.282853
649.893	0.302052
659.536	0.321921
669.178	0.337433
678.82	0.352411
688.463	0.367019
698.105	0.382166
707.747	0.395587
717.39	0.409535
727.032	0.417474
736.674	0.417757
746.317	0.408773
755.959	0.393423
765.601	0.376595
775.244	0.360915
784.886	0.348619
794.528	0.343812
804.171	0.339542
813.813	0.330078
823.455	0.31014
833.098	0.289805
842.74	0.273884
852.382	0.251734
862.025	0.231841
871.667	0.220553
881.309	0.215564
890.952	0.21261
900.594	0.209218
910.236	0.200263
919.879	0.186682
929.521	0.168604
939.163	0.148751
948.806	0.136384
958.448	0.116847
968.09	0.0934529
977.733	0.0600923
987.375	0.0472187
997.017	0.0455254
1006.66	0.0490527
1016.3	0.0505353
1025.94	0.0485749
1035.59	0.0452176
1045.23	0.0402136
1054.87	0.0370502
1064.51	0.0362268
1074.16	0.0382781
1083.8	0.0436334
1093.44	0.0395889
1103.08	0.0327704
1112.72	0.0285776
1122.37	0.0255906
1132.01	0.0237354
1141.65	0.0220777
1151.3	0.0209238
1160.94	0.0204255
1170.58	0.0210191
1180.22	0.0215638
1189.86	0.0230465
1199.51	0.023109
1209.15	0.0220796
1218.79	0.0198926
1228.43	0.0184499
1238.08	0.0169744
1247.72	0.0167191
1257.36	0.0162509
1267	0.0164204
1276.64	0.0171226
1286.29	0.0173394
1295.93	0.0172542
1305.57	0.017237
1315.21	0.0171149
1324.86	0.01736
1334.5	0.0169131
1344.14	0.0171003
1353.78	0.0159032
1363.43	0.0156542
1373.07	0.0172298
1382.71	0.0187175
1392.35	0.0214043
1401.99	0.0244277
1411.64	0.0278235
1421.28	0.0291933
1430.92	0.02821
1440.57	0.0265058
1450.21	0.0247418
1459.85	0.023057
1469.49	0.0224956
1479.13	0.0240947
1488.78	0.0251539
1498.42	0.0261467
1508.06	0.028597
1517.7	0.030003
1527.35	0.0320152
1536.99	0.0341629
1546.63	0.0358311
1556.27	0.03892
1565.91	0.0432741
1575.56	0.0501397
1585.2	0.0598527
1594.84	0.072485
1604.48	0.0862234
1614.13	0.0935126
1623.77	0.0892879
1633.41	0.0815745
1643.05	0.0708548
1652.7	0.0584312
1662.34	0.0472097
1671.98	0.0387781
1681.62	0.0332065
1691.27	0.0292866
1700.91	0.0271286
1710.55	0.0235286
1720.19	0.021751
1729.84	0.0185523
1739.48	0.0134402
1749.12	0.013706
1758.76	0.0190525
1768.4	0.0203652
1778.05	0.0206663
1787.69	0.0198814
1797.33	0.0199251
1806.97	0.0204003
1816.62	0.0203226
1826.26	0.0200472
1835.9	0.0211275
1845.54	0.0212246
1855.18	0.0214443
1864.83	0.0204162
1874.47	0.0214614
1884.11	0.0223567
1893.75	0.0219497
1903.4	0.0217507
1913.04	0.020356
1922.68	0.0222771
1932.32	0.0205433
1941.97	0.0210668
1951.61	0.0217846
1961.25	0.0213569
1970.89	0.0237443
1980.54	0.0230156
1990.18	0.0232235
1999.82	0.0219868
2009.46	0.0209006
2019.11	0.0186378
2028.75	0.0231698
2038.39	0.0254642
2048.03	0.0248918
2057.67	0.0260257
2067.32	0.0259527
2076.96	0.0263756
2086.6	0.0282751
2096.24	0.028999
2105.89	0.0294789
2115.53	0.0283679
2125.17	0.0269997
2134.81	0.0257596
2144.45	0.0238349
2154.1	0.0198978
2163.74	0.0319909
2173.38	0.0246035
2183.02	0.027209
2192.67	0.0311444
2202.31	0.0301749
2211.95	0.0288798
2221.59	0.0289284
2231.24	0.0308983
2240.88	0.0311412
2250.52	0.0339
2260.16	0.0348738
2269.8	0.0368226
2279.45	0.0370404
2289.09	0.0370694
2298.73	0.0363512
2308.38	0.0368119
2318.02	0.0394646
2327.66	0.0382106
2337.3	0.0392327
2346.94	0.0374438
2356.59	0.0393156
2366.23	0.0385091
2375.87	0.0395177
2385.51	0.0390043
2395.16	0.0382512
2404.8	0.0388304
2414.44	0.0393768
2424.08	0.0399793
2433.72	0.0399611
2443.37	0.0429282
2453.01	0.0425189
2462.65	0.0423649
2472.29	0.0426836
2481.94	0.0428887
2491.58	0.0428164
2501.22	0.0433615
2510.86	0.0455007
2520.51	0.0456388
2530.15	0.0463619
2539.79	0.04664
2549.43	0.0477976
2559.07	0.0503801
2568.72	0.0499649
2578.36	0.0509001
2588	0.0543238
2597.64	0.0538396
2607.29	0.0536984
2616.93	0.0555351
2626.57	0.0594436
2636.21	0.0609251
2645.86	0.0628526
2655.5	0.0637096
2665.14	0.0650948
2674.78	0.0648254
2684.43	0.0687043
2694.07	0.0718653
2703.71	0.0743649
2713.35	0.0762508
2722.99	0.080993
2732.64	0.08074
2742.28	0.0821131
2751.92	0.0865645
2761.56	0.0906044
2771.21	0.0924245
2780.85	0.0988151
2790.49	0.0991165
2800.13	0.10299
2809.78	0.108112
2819.42	0.110324
2829.06	0.11401
2838.7	0.118216
2848.34	0.117932
2857.99	0.127253
2867.63	0.131697
2877.27	0.136956
2886.91	0.138978
2896.56	0.144875
2906.2	0.147746
2915.84	0.150813
2925.48	0.15851
2935.13	0.164418
2944.77	0.167796
2954.41	0.17169
2964.05	0.179393
2973.7	0.181563
2983.34	0.186638
2992.98	0.190893
3002.62	0.1936
3012.26	0.197388
3021.91	0.204655
3031.55	0.204151
3041.19	0.21282
3050.83	0.212559
3060.48	0.216373
3070.12	0.220215
3079.76	0.225253
3089.4	0.228925
3099.05	0.229874
3108.69	0.233123
3118.33	0.236315
3127.97	0.239366
3137.61	0.24038
3147.26	0.243927
3156.9	0.243199
3166.54	0.24453
3176.18	0.245044
3185.83	0.242808
3195.47	0.245478
3205.11	0.241386
3214.75	0.242417
3224.4	0.241301
3234.04	0.24192
3243.68	0.243019
3253.32	0.242268
3262.97	0.241039
3272.61	0.24388
3282.25	0.241749
3291.89	0.244995
3301.53	0.243934
3311.18	0.243717
3320.82	0.241545
3330.46	0.243672
3340.1	0.240718
3349.75	0.238973
3359.39	0.239965
3369.03	0.241143
3378.67	0.239003
3388.32	0.238455
3397.96	0.233069
3407.6	0.227857
3417.24	0.222229
3426.89	0.218721
3436.53	0.20546
3446.17	0.198243
3455.81	0.193774
3465.45	0.186069
3475.1	0.18513
3484.74	0.178136
3494.38	0.178487
3504.02	0.170207
3513.67	0.162791
3523.31	0.147508
3532.95	0.142682
3542.59	0.129359
3552.24	0.120599
3561.88	0.108731
3571.52	0.0984602
3581.16	0.0870814
3590.8	0.0803564
3600.45	0.0698171
3610.09	0.0606863
3619.73	0.0571751
3629.37	0.0533305
3639.02	0.0460915
3648.66	0.0460184
3658.3	0.0420579
3667.94	0.0361988
3677.59	0.0396581
3687.23	0.0374992
3696.87	0.0358286
3706.51	0.0376321
3716.16	0.0388161
3725.8	0.0366335
3735.44	0.0401533
3745.08	0.039094
3754.72	0.0397891
3764.37	0.0385588
3774.01	0.041861
3783.65	0.0388785
3793.29	0.0454706
3802.94	0.0450979
3812.58	0.0392257
3822.22	0.0410765
3831.86	0.0443002
3841.51	0.0424409
3851.15	0.046601
3860.79	0.0451243
3870.43	0.0406299
3880.07	0.0431432
3889.72	0.0463924
3899.36	0.0445321
3909	0.0462901
3918.64	0.0442316
3928.29	0.0483265
3937.93	0.0447377
3947.57	0.049354
3957.21	0.0532115
3966.86	0.0472574
3976.5	0.0487522
3986.14	0.0502201
3995.78	0.0500102
