Measurement: Infrared, Infrared Data Processed
Mineral: Ferrierite-Mg
Rruff sample: R070091
Ideal chemistry: [Mg_2_(K,Na)_2_Ca_0.5_](Si_29_Al_7_)O_72_18H_2_O
Locality: Kamloops Lake, British Columbia, Canada
Source: Michael Scott
Description: White acicular crystal in radial hemispheres and lining a cavity associated with quartz
Measured chemistry: (Mg_1.66_Na_1.65_K_0.35_Ca_0.12_Ba_0.05_Sr_0.04_)_Σ=3.87_(Si_30.26_Al_5.74_)O_72_·21.5H_2_O; H_2_O estimated by difference
x	intensity
399.193	0.133022
408.835	0.143077
418.477	0.145497
428.12	0.155246
437.762	0.15464
447.404	0.15036
457.047	0.144704
466.689	0.130328
476.331	0.102988
485.974	0.0805992
495.616	0.0643352
505.258	0.0555422
514.901	0.0537537
524.543	0.0549506
534.185	0.0582215
543.828	0.0623768
553.47	0.0648579
563.112	0.0646773
572.755	0.0589864
582.397	0.0494822
592.039	0.0416422
601.682	0.0372707
611.324	0.0359819
620.966	0.0366136
630.609	0.0385625
640.251	0.040441
649.893	0.0404776
659.536	0.0415704
669.178	0.0435968
678.82	0.0457625
688.463	0.0466253
698.105	0.0469613
707.747	0.0464864
717.39	0.0445963
727.032	0.0432474
736.674	0.0419453
746.317	0.0399233
755.959	0.0376207
765.601	0.035842
775.244	0.0358623
784.886	0.0371174
794.528	0.0373383
804.171	0.0337882
813.813	0.0263215
823.455	0.0211795
833.098	0.0190293
842.74	0.0190629
852.382	0.0202076
862.025	0.022532
871.667	0.0255839
881.309	0.0293667
890.952	0.0338896
900.594	0.039141
910.236	0.0452053
919.879	0.0528563
929.521	0.062367
939.163	0.0749006
948.806	0.0889193
958.448	0.102684
968.09	0.120513
977.733	0.144436
987.375	0.17169
997.017	0.198209
1006.66	0.219356
1016.3	0.233447
1025.94	0.239781
1035.59	0.239531
1045.23	0.233427
1054.87	0.223518
1064.51	0.210073
1074.16	0.193888
1083.8	0.173782
1093.44	0.149613
1103.08	0.125616
1112.72	0.105373
1122.37	0.0930961
1132.01	0.086009
1141.65	0.0812334
1151.3	0.0765655
1160.94	0.0716366
1170.58	0.0669747
1180.22	0.0625361
1189.86	0.0588732
1199.51	0.0560021
1209.15	0.0531589
1218.79	0.0489125
1228.43	0.0404386
1238.08	0.0268228
1247.72	0.0146007
1257.36	0.00856213
1267	0.00541555
1276.64	0.00383588
1286.29	0.00252004
1295.93	0.00215565
1305.57	0.0011527
1315.21	0.00110323
1324.86	0.000684528
1334.5	0.000450357
1344.14	0.000219118
1353.78	-5.75825e-05
1363.43	-9.30375e-05
1373.07	-7.62196e-05
1382.71	-0.000257511
1392.35	-0.00020482
1401.99	-5.86545e-05
1411.64	-0.000200283
1421.28	-0.000135782
1430.92	0.000126238
1440.57	0.000119856
1450.21	0.000186527
1459.85	0.000319179
1469.49	4.94747e-05
1479.13	-0.000131329
1488.78	-3.64426e-05
1498.42	-0.000151235
1508.06	-1.65468e-05
1517.7	-0.000287747
1527.35	-0.000162211
1536.99	-0.000120987
1546.63	-9.04451e-05
1556.27	0.000370124
1565.91	0.000538253
1575.56	0.00118936
1585.2	0.00181558
1594.84	0.00293905
1604.48	0.00536121
1614.13	0.0099226
1623.77	0.0163575
1633.41	0.0202438
1643.05	0.0199646
1652.7	0.0176612
1662.34	0.0129854
1671.98	0.00812654
1681.62	0.00413678
1691.27	0.00181797
1700.91	0.000933219
1710.55	-0.00011423
1720.19	-0.000707306
1729.84	-0.000924657
1739.48	-0.00161148
1749.12	-0.00202673
1758.76	-0.00208914
1768.4	-0.00202917
1778.05	-0.00185469
1787.69	-0.00195288
1797.33	-0.00231478
1806.97	-0.00220556
1816.62	-0.00218554
1826.26	-0.00171992
1835.9	-0.00195109
1845.54	-0.00253667
1855.18	-0.00227457
1864.83	-0.002326
1874.47	-0.0026569
1884.11	-0.00294431
1893.75	-0.00302603
1903.4	-0.00319471
1913.04	-0.00322456
1922.68	-0.00255929
1932.32	-0.00415767
1941.97	-0.00339307
1951.61	-0.00316857
1961.25	-0.00383943
1970.89	-0.00448605
1980.54	-0.00208122
1990.18	-0.00460207
1999.82	-0.00446277
2009.46	-0.00462642
2019.11	-0.004728
2028.75	-0.00493484
2038.39	-0.00426769
2048.03	-0.00386492
2057.67	-0.00434214
2067.32	-0.00453996
2076.96	-0.00390537
2086.6	-0.0047798
2096.24	-0.00449172
2105.89	-0.00456274
2115.53	-0.00490693
2125.17	-0.005146
2134.81	-0.0066948
2144.45	-0.00701756
2154.1	-0.00622296
2163.74	-0.00328315
2173.38	-0.00450116
2183.02	-0.00371156
2192.67	-0.00251579
2202.31	-0.0022512
2211.95	-0.00168018
2221.59	-0.00203289
2231.24	-0.00223147
2240.88	-0.00227694
2250.52	-0.00185362
2260.16	-0.00207448
2269.8	-0.00163225
2279.45	-0.00192843
2289.09	-0.00166422
2298.73	-0.00222755
2308.38	-0.00204806
2318.02	-0.00190658
2327.66	-0.00278469
2337.3	-0.00282251
2346.94	-0.00273408
2356.59	-0.00319751
2366.23	-0.00376369
2375.87	-0.00370006
2385.51	-0.00389036
2395.16	-0.00372319
2404.8	-0.00399373
2414.44	-0.00376609
2424.08	-0.00318546
2433.72	-0.00368865
2443.37	-0.00347963
2453.01	-0.00317797
2462.65	-0.00326963
2472.29	-0.00301278
2481.94	-0.00353326
2491.58	-0.00350643
2501.22	-0.00337727
2510.86	-0.0030143
2520.51	-0.00254599
2530.15	-0.00295571
2539.79	-0.00327241
2549.43	-0.00299122
2559.07	-0.00292093
2568.72	-0.00274661
2578.36	-0.00294992
2588	-0.00254678
2597.64	-0.00252458
2607.29	-0.0024224
2616.93	-0.00277072
2626.57	-0.00233591
2636.21	-0.00221494
2645.86	-0.00223352
2655.5	-0.00222136
2665.14	-0.00288811
2674.78	-0.00269856
2684.43	-0.0027907
2694.07	-0.00289935
2703.71	-0.00267216
2713.35	-0.00286356
2722.99	-0.00251041
2732.64	-0.00225117
2742.28	-0.00255133
2751.92	-0.002275
2761.56	-0.00251113
2771.21	-0.00220269
2780.85	-0.00233448
2790.49	-0.00177977
2800.13	-0.00188815
2809.78	-0.00157472
2819.42	-0.00172569
2829.06	-0.00145792
2838.7	-0.000673835
2848.34	-0.00070305
2857.99	-9.86799e-05
2867.63	-0.000462579
2877.27	-0.000327319
2886.91	-0.000660429
2896.56	0.00075048
2906.2	0.000528652
2915.84	0.000790681
2925.48	0.00172415
2935.13	0.00130733
2944.77	0.000819637
2954.41	0.00194629
2964.05	0.00164537
2973.7	0.00116799
2983.34	0.000679733
2992.98	0.00152764
3002.62	0.00190919
3012.26	0.00116328
3021.91	0.00178074
3031.55	0.00300853
3041.19	0.00263083
3050.83	0.00374272
3060.48	0.0043866
3070.12	0.00449196
3079.76	0.00451968
3089.4	0.0057237
3099.05	0.00649734
3108.69	0.00791749
3118.33	0.00765888
3127.97	0.00833945
3137.61	0.00918515
3147.26	0.0102208
3156.9	0.0109512
3166.54	0.0115501
3176.18	0.012516
3185.83	0.0125501
3195.47	0.0140765
3205.11	0.0144528
3214.75	0.015432
3224.4	0.0159205
3234.04	0.0169707
3243.68	0.016822
3253.32	0.0178165
3262.97	0.0169682
3272.61	0.0173665
3282.25	0.0172378
3291.89	0.0166902
3301.53	0.0171138
3311.18	0.0178842
3320.82	0.0170847
3330.46	0.0177716
3340.1	0.0187744
3349.75	0.0187544
3359.39	0.0190523
3369.03	0.020124
3378.67	0.0198148
3388.32	0.019942
3397.96	0.0201032
3407.6	0.0203735
3417.24	0.0200658
3426.89	0.0200903
3436.53	0.020412
3446.17	0.02082
3455.81	0.019359
3465.45	0.0195445
3475.1	0.0195034
3484.74	0.0188234
3494.38	0.019778
3504.02	0.0195084
3513.67	0.0189914
3523.31	0.0183722
3532.95	0.0186515
3542.59	0.0178714
3552.24	0.0179863
3561.88	0.0164577
3571.52	0.0159045
3581.16	0.0154873
3590.8	0.0147925
3600.45	0.0141642
3610.09	0.0124853
3619.73	0.0126934
3629.37	0.0100964
3639.02	0.00726363
3648.66	0.00479553
3658.3	0.000528956
3667.94	-0.00256534
3677.59	-0.00424146
3687.23	-0.0061062
3696.87	-0.00708129
3706.51	-0.00747258
3716.16	-0.0083331
3725.8	-0.00827297
3735.44	-0.0077284
3745.08	-0.00661868
3754.72	-0.00860382
3764.37	-0.00854984
3774.01	-0.00969847
3783.65	-0.00787383
3793.29	-0.00772847
3802.94	-0.00884934
3812.58	-0.0085646
3822.22	-0.00953424
3831.86	-0.00884356
3841.51	-0.00850169
3851.15	-0.00900947
3860.79	-0.00889411
3870.43	-0.00815639
3880.07	-0.00874288
3889.72	-0.009091
3899.36	-0.00900738
3909	-0.00849411
3918.64	-0.00950513
3928.29	-0.00966166
3937.93	-0.00820705
3947.57	-0.00960989
3957.21	-0.0101125
3966.86	-0.00911027
3976.5	-0.0101313
3986.14	-0.00816624
3995.78	-0.00917393
