Measurement: Infrared, Infrared Data Processed
Mineral: Fluorite
Rruff sample: R050115
Ideal chemistry: CaF_2_
Locality: Isthak Valley Iskardu, N.A. Gilgit, Pakistan
Source: Syed Shah
Description: Colorless fragment
Measured chemistry: CaF_2_
x	intensity
374.123	0.0957139
383.765	0.0891706
393.407	0.0895927
403.05	0.0720386
412.692	0.0590981
422.334	0.0528273
431.976	0.0463062
441.619	0.0398255
451.261	0.031666
460.904	0.0253682
470.546	0.0205959
480.188	0.0154998
489.83	0.0129805
499.473	0.0113499
509.115	0.0107421
518.758	0.0091342
528.4	0.00852625
538.042	0.00838733
547.684	0.0084737
557.327	0.0080318
566.969	0.00832807
576.611	0.00734875
586.254	0.00603377
595.896	0.00532538
605.538	0.00489004
615.181	0.00390227
624.823	0.00365218
634.466	0.00322242
644.108	0.00298319
653.75	0.00264225
663.393	0.00220587
673.035	0.00244344
682.677	0.00231465
692.319	0.00215499
701.962	0.00226354
711.604	0.00221245
721.246	0.00243411
730.889	0.00184582
740.531	0.00176641
750.173	0.00204367
759.816	0.00160007
769.458	0.00152329
779.101	0.00118581
788.743	0.0011767
798.385	0.000951336
808.028	0.00104816
817.67	0.000923653
827.312	0.00100406
836.955	0.00137743
846.597	0.00133004
856.239	0.00166631
865.881	0.00178869
875.524	0.00230687
885.166	0.00254529
894.808	0.00310167
904.451	0.00340374
914.093	0.00355864
923.736	0.00355866
933.378	0.00356395
943.02	0.00377304
952.663	0.00380232
962.305	0.00382275
971.947	0.00388156
981.59	0.00378367
991.232	0.00338515
1000.87	0.00361082
1010.52	0.00350265
1020.16	0.00358466
1029.8	0.00318774
1039.44	0.00326677
1049.09	0.00282014
1058.73	0.00306361
1068.37	0.00303111
1078.01	0.00292471
1087.65	0.0028381
1097.3	0.00301731
1106.94	0.00309141
1116.58	0.00317758
1126.22	0.00308251
1135.87	0.0032125
1145.51	0.00383449
1155.15	0.00470148
1164.79	0.00459232
1174.44	0.00388473
1184.08	0.00326549
1193.72	0.00239757
1203.36	0.00197785
1213.01	0.00220729
1222.65	0.00218004
1232.29	0.00224472
1241.93	0.00205876
1251.58	0.00228388
1261.22	0.00209199
1270.86	0.00205608
1280.5	0.00172002
1290.14	0.00175454
1299.79	0.0017188
1309.43	0.00167789
1319.07	0.00166145
1328.71	0.00146337
1338.36	0.00164509
1348	0.00171285
1357.64	0.00160528
1367.28	0.00229362
1376.92	0.00224128
1386.57	0.00192259
1396.21	0.00188993
1405.85	0.00186938
1415.49	0.00196807
1425.14	0.00214943
1434.78	0.00274186
1444.42	0.00288432
1454.06	0.00351469
1463.71	0.0035497
1473.35	0.00266784
1482.99	0.00193735
1492.63	0.00182426
1502.28	0.00178179
1511.92	0.00182668
1521.56	0.00240642
1531.2	0.00215017
1540.85	0.00318566
1550.49	0.00262533
1560.13	0.00393161
1569.77	0.00313233
1579.41	0.00277383
1589.06	0.00254461
1598.7	0.00269325
1608.34	0.00275962
1617.98	0.0026738
1627.63	0.00238145
1637.27	0.00272457
1646.91	0.00289965
1656.55	0.0025298
1666.19	0.00258319
1675.84	0.00262634
1685.48	0.0031151
1695.12	0.00322595
1704.77	0.00306963
1714.41	0.00337648
1724.05	0.0052189
1733.69	0.00795127
1743.33	0.00542899
1752.98	0.00289887
1762.62	0.00156188
1772.26	0.0021109
1781.9	0.00146071
1791.55	0.00140611
1801.19	0.00145451
1810.83	0.001316
1820.47	0.00148109
1830.12	0.00149136
1839.76	0.000858209
1849.4	0.00124675
1859.04	0.00137874
1868.68	0.00169222
1878.33	0.00121477
1887.97	0.001913
1897.61	0.00106719
1907.25	0.00116063
1916.9	0.00168974
1926.54	0.00120932
1936.18	0.00132549
1945.82	0.00236618
1955.46	-0.0005874
1965.11	0.00174339
1974.75	0.000689532
1984.39	0.00262997
1994.04	0.000547633
2003.68	0.000420947
2013.32	-0.00111274
2022.96	0.000625602
2032.6	0.00276237
2042.25	0.00310801
2051.89	0.00201661
2061.53	0.000839748
2071.17	0.00183309
2080.82	0.00183375
2090.46	0.00125353
2100.1	0.000937023
2109.74	0.00174879
2119.39	0.00110873
2129.03	-0.000211465
2138.67	0.000450017
2148.31	-6.42754e-05
2157.95	-0.00117647
2167.6	0.00243249
2177.24	0.00094205
2186.88	0.00267072
2196.52	0.00218553
2206.17	0.00185193
2215.81	0.00163348
2225.45	0.00210331
2235.09	0.00302834
2244.74	0.00251436
2254.38	0.00144712
2264.02	0.00273401
2273.66	0.00180149
2283.3	0.00334156
2292.95	0.00305559
2302.59	0.00299812
2312.23	0.00274329
2321.87	0.00419626
2331.52	0.00342793
2341.16	0.00310615
2350.8	0.00286521
2360.44	0.00311683
2370.09	0.00269587
2379.73	0.00137472
2389.37	0.00184843
2399.01	0.00209059
2408.66	0.0022056
2418.3	0.0027487
2427.94	0.00252827
2437.58	0.00241275
2447.22	0.00288044
2456.87	0.00275924
2466.51	0.0030291
2476.15	0.00388461
2485.79	0.0032555
2495.44	0.00268808
2505.08	0.00308104
2514.72	0.00211186
2524.36	0.00293416
2534.01	0.00402181
2543.65	0.00302436
2553.29	0.00364314
2562.93	0.00436342
2572.57	0.0042763
2582.22	0.00381378
2591.86	0.00336495
2601.5	0.00406033
2611.14	0.00363645
2620.79	0.00432262
2630.43	0.00394052
2640.07	0.00370816
2649.71	0.00396747
2659.36	0.00368848
2669	0.00347441
2678.64	0.00343364
2688.28	0.00331584
2697.93	0.00347503
2707.57	0.00318867
2717.21	0.00331604
2726.85	0.00285838
2736.49	0.00385623
2746.14	0.00313957
2755.78	0.00373144
2765.42	0.003284
2775.06	0.0037131
2784.71	0.0036751
2794.35	0.00386475
2803.99	0.00373121
2813.63	0.0039829
2823.28	0.0044014
2832.92	0.00501505
2842.56	0.00678367
2852.2	0.00997146
2861.84	0.0076154
2871.49	0.00747116
2881.13	0.00657943
2890.77	0.00736457
2900.41	0.00850982
2910.06	0.0105427
2919.7	0.013576
2929.34	0.0134296
2938.98	0.00918124
2948.62	0.00804885
2958.27	0.00846928
2967.91	0.00686252
2977.55	0.00487362
2987.2	0.00392536
2996.84	0.00326979
3006.48	0.00296927
3016.12	0.00190837
3025.76	0.00286502
3035.41	0.00313736
3045.05	0.00361293
3054.69	0.00322739
3064.33	0.00325468
3073.98	0.00323266
3083.62	0.00368666
3093.26	0.00296108
3102.9	0.00329379
3112.55	0.00282834
3122.19	0.00281139
3131.83	0.00410574
3141.47	0.00218565
3151.11	0.00296886
3160.76	0.0036346
3170.4	0.00413828
3180.04	0.00435359
3189.68	0.00326069
3199.33	0.00478053
3208.97	0.00384335
3218.61	0.00377876
3228.25	0.0039293
3237.9	0.00380742
3247.54	0.00439385
3257.18	0.00318106
3266.82	0.00290833
3276.47	0.00260724
3286.11	0.00429172
3295.75	0.00306146
3305.39	0.00341147
3315.03	0.00292087
3324.68	0.00484447
3334.32	0.00336192
3343.96	0.00397258
3353.6	0.00314026
3363.25	0.00325114
3372.89	0.00280231
3382.53	0.00283705
3392.17	0.00332394
3401.82	0.00326809
3411.46	0.00369192
3421.1	0.00262773
3430.74	0.00360693
3440.39	0.00284252
3450.03	0.00328622
3459.67	0.00240084
3469.31	0.00250114
3478.95	0.00332799
3488.6	0.0044451
3498.24	0.00269627
3507.88	0.0037252
3517.52	0.0031787
3527.17	0.00418824
3536.81	0.00147658
3546.45	0.00281501
3556.09	0.00191518
3565.74	0.00239043
3575.38	0.00218167
3585.02	0.00184013
3594.66	0.00409665
3604.3	0.00141511
3613.95	0.00234312
3623.59	0.00306678
3633.23	0.00281178
3642.87	0.00252761
3652.52	0.0013272
3662.16	0.0025371
3671.8	0.00385732
3681.44	0.00320986
3691.09	0.0043456
3700.73	0.00403165
3710.37	0.00361417
3720.01	0.00404772
3729.66	0.00374455
3739.3	0.00378218
3748.94	0.00420211
3758.58	0.00433528
3768.22	0.00257669
3777.87	0.00379785
3787.51	0.00361774
3797.15	0.00192975
3806.79	0.00475807
3816.44	0.00315867
3826.08	0.00363603
3835.72	0.00336335
3845.36	0.00261157
3855.01	0.00545396
3864.65	0.00377767
3874.29	0.00381295
3883.93	0.00485746
3893.57	0.00385534
3903.22	0.00478365
3912.86	0.00421622
3922.5	0.00518556
3932.14	0.00428376
3941.79	0.00421793
3951.43	0.00436908
3961.07	0.00420107
3970.71	0.00576867
3980.36	0.00287155
3990	0.00324827
3999.64	0.0035849
