Measurement: Infrared, Infrared Data Processed
Mineral: Fluorophlogopite
Rruff sample: R040075
Ideal chemistry: KMg_3_(Si_3_Al)O_10_F_2_
Locality: unknown
Source: University of Arizona Mineral Museum
Description: Green hexagonal tablet
Measured chemistry: (K_0.93_[box]_0.04_Na_0.03_)(Mg_0.66_Fe_0.30_Ti_0.02_)_3_(Si_0.75_Al_0.25_)_4_O_10_(F_0.90_(OH)_0.06_Cl_0.04_)
x	intensity
399.193	0
408.835	0.394716
418.477	0.397295
428.12	0.404932
437.762	0.389234
447.404	0.352769
457.047	0.30562
466.689	0.246669
476.331	0.205181
485.974	0.197254
495.616	0.185076
505.258	0.166415
514.901	0.162377
524.543	0.170037
534.185	0.188964
543.828	0.216133
553.47	0.252572
563.112	0.284689
572.755	0.307728
582.397	0.32012
592.039	0.323585
601.682	0.320781
611.324	0.309039
620.966	0.287144
630.609	0.283172
640.251	0.298802
649.893	0.284923
659.536	0.265591
669.178	0.246754
678.82	0.22881
688.463	0.210503
698.105	0.200309
707.747	0.197793
717.39	0.19456
727.032	0.18601
736.674	0.173384
746.317	0.163745
755.959	0.15717
765.601	0.151182
775.244	0.145031
784.886	0.137648
794.528	0.132201
804.171	0.127398
813.813	0.119865
823.455	0.115324
833.098	0.112768
842.74	0.109575
852.382	0.10659
862.025	0.104665
871.667	0.105213
881.309	0.106872
890.952	0.116406
900.594	0.132189
910.236	0.142788
919.879	0.15388
929.521	0.170394
939.163	0.194621
948.806	0.229576
958.448	0.269373
968.09	0.285598
977.733	0.274276
987.375	0.271084
997.017	0.278329
1006.66	0.262042
1016.3	0.209231
1025.94	0.151948
1035.59	0.114049
1045.23	0.0912517
1054.87	0.0793873
1064.51	0.0721987
1074.16	0.0659183
1083.8	0.0569465
1093.44	0.0466442
1103.08	0.0368532
1112.72	0.0289572
1122.37	0.0241737
1132.01	0.0211418
1141.65	0.0190943
1151.3	0.016957
1160.94	0.015754
1170.58	0.0144092
1180.22	0.0130057
1189.86	0.0117507
1199.51	0.0101692
1209.15	0.00875283
1218.79	0.00773465
1228.43	0.00659549
1238.08	0.00546357
1247.72	0.00465719
1257.36	0.0047336
1267	0.00397273
1276.64	0.00382125
1286.29	0.00399903
1295.93	0.00372348
1305.57	0.00356328
1315.21	0.00332422
1324.86	0.00365928
1334.5	0.00381876
1344.14	0.00379579
1353.78	0.00392846
1363.43	0.00430227
1373.07	0.00540557
1382.71	0.00492809
1392.35	0.00461164
1401.99	0.00514354
1411.64	0.00554192
1421.28	0.00560147
1430.92	0.0052924
1440.57	0.00498657
1450.21	0.00487063
1459.85	0.00507234
1469.49	0.00348924
1479.13	0.00318871
1488.78	0.00263388
1498.42	0.00304034
1508.06	0.00345269
1517.7	0.00350659
1527.35	0.0038149
1536.99	0.00392479
1546.63	0.00531654
1556.27	0.00497791
1565.91	0.00579011
1575.56	0.00462417
1585.2	0.0054473
1594.84	0.00577445
1604.48	0.00563016
1614.13	0.00525874
1623.77	0.00572589
1633.41	0.00491044
1643.05	0.00547368
1652.7	0.00402671
1662.34	0.00440197
1671.98	0.00417826
1681.62	0.00348076
1691.27	0.00328345
1700.91	0.00377364
1710.55	0.00243556
1720.19	0.00258462
1729.84	0.00191461
1739.48	0.000646219
1749.12	0.00112471
1758.76	0.00189189
1768.4	0.00221997
1778.05	0.00217918
1787.69	0.00205107
1797.33	0.0021667
1806.97	0.00181939
1816.62	0.00191362
1826.26	0.00192828
1835.9	0.00161805
1845.54	0.00186956
1855.18	0.000863452
1864.83	0.000249201
1874.47	-2.83807e-05
1884.11	-3.9189e-05
1893.75	0.000148864
1903.4	-0.00108332
1913.04	-0.00118307
1922.68	-0.0023866
1932.32	-0.00310502
1941.97	-0.0023992
1951.61	-0.00412278
1961.25	-0.00612186
1970.89	-0.0073522
1980.54	-0.0060886
1990.18	-0.0048661
1999.82	-0.00697713
2009.46	-0.00783867
2019.11	-0.00925547
2028.75	-0.00777499
2038.39	-0.00366969
2048.03	-0.00258058
2057.67	0.000719343
2067.32	-0.000212789
2076.96	-0.000187025
2086.6	0.00125187
2096.24	0.00306703
2105.89	0.00220981
2115.53	0.00128386
2125.17	0.00174916
2134.81	-0.00223434
2144.45	-0.00208361
2154.1	-0.00245776
2163.74	-0.000324808
2173.38	-0.00223387
2183.02	-0.00121302
2192.67	-0.000167748
2202.31	-0.000797184
2211.95	0.00410695
2221.59	0.00298379
2231.24	0.00269244
2240.88	0.00353352
2250.52	0.00247608
2260.16	0.00593838
2269.8	0.00453787
2279.45	0.00435331
2289.09	0.005411
2298.73	0.00614799
2308.38	0.00607058
2318.02	0.0068805
2327.66	0.0069161
2337.3	0.00612985
2346.94	0.00623719
2356.59	0.00624052
2366.23	0.00611252
2375.87	0.00612772
2385.51	0.00585646
2395.16	0.00573807
2404.8	0.0055295
2414.44	0.00539622
2424.08	0.00582081
2433.72	0.00646476
2443.37	0.00570576
2453.01	0.00623633
2462.65	0.00615653
2472.29	0.00634572
2481.94	0.00630898
2491.58	0.00678392
2501.22	0.00685354
2510.86	0.00696353
2520.51	0.00628768
2530.15	0.00638144
2539.79	0.00668328
2549.43	0.00638826
2559.07	0.00751451
2568.72	0.0070277
2578.36	0.0085532
2588	0.00788926
2597.64	0.00793206
2607.29	0.00862462
2616.93	0.0088045
2626.57	0.00853131
2636.21	0.00864442
2645.86	0.00905576
2655.5	0.00911866
2665.14	0.008865
2674.78	0.00886803
2684.43	0.00944535
2694.07	0.00977122
2703.71	0.00924801
2713.35	0.00991841
2722.99	0.010327
2732.64	0.0100828
2742.28	0.0103966
2751.92	0.00960998
2761.56	0.0105627
2771.21	0.0112145
2780.85	0.0108953
2790.49	0.0109611
2800.13	0.0115901
2809.78	0.0122407
2819.42	0.0119934
2829.06	0.0126272
2838.7	0.0141328
2848.34	0.0104254
2857.99	0.0118616
2867.63	0.013848
2877.27	0.0130937
2886.91	0.0137456
2896.56	0.0142101
2906.2	0.0149859
2915.84	0.014439
2925.48	0.0129214
2935.13	0.014209
2944.77	0.0149879
2954.41	0.0172722
2964.05	0.0168019
2973.7	0.0162469
2983.34	0.0153132
2992.98	0.0164387
3002.62	0.0155623
3012.26	0.0162471
3021.91	0.0172893
3031.55	0.0170382
3041.19	0.0169142
3050.83	0.0184173
3060.48	0.0189407
3070.12	0.0191103
3079.76	0.0202069
3089.4	0.0204635
3099.05	0.0202867
3108.69	0.0222569
3118.33	0.0219105
3127.97	0.0237309
3137.61	0.0233569
3147.26	0.0226923
3156.9	0.0228651
3166.54	0.0256443
3176.18	0.0241781
3185.83	0.02488
3195.47	0.0240414
3205.11	0.026694
3214.75	0.0269129
3224.4	0.0269619
3234.04	0.0267934
3243.68	0.027535
3253.32	0.0287532
3262.97	0.0304425
3272.61	0.0297098
3282.25	0.0310107
3291.89	0.0296086
3301.53	0.0312257
3311.18	0.0310974
3320.82	0.0322561
3330.46	0.0328444
3340.1	0.0337367
3349.75	0.0345109
3359.39	0.0340428
3369.03	0.0348569
3378.67	0.0363759
3388.32	0.0368161
3397.96	0.0362722
3407.6	0.0354091
3417.24	0.0390802
3426.89	0.0362414
3436.53	0.0371435
3446.17	0.0381174
3455.81	0.0388228
3465.45	0.0380962
3475.1	0.0370749
3484.74	0.0364041
3494.38	0.0367448
3504.02	0.0390674
3513.67	0.0374912
3523.31	0.0380218
3532.95	0.0357389
3542.59	0.0353223
3552.24	0.0362786
3561.88	0.0345242
3571.52	0.0354376
3581.16	0.0350824
3590.8	0.0332056
3600.45	0.0325098
3610.09	0.0292736
3619.73	0.0285786
3629.37	0.0280547
3639.02	0.0273855
3648.66	0.0233794
3658.3	0.0249895
3667.94	0.0254979
3677.59	0.020983
3687.23	0.0208534
3696.87	0.0230011
3706.51	0.0247178
3716.16	0.0223754
3725.8	0.0212738
3735.44	0.0199424
3745.08	0.0188696
3754.72	0.022172
3764.37	0.0228682
3774.01	0.0215146
3783.65	0.022608
3793.29	0.0230217
3802.94	0.0217759
3812.58	0.0233731
3822.22	0.0212284
3831.86	0.0223574
3841.51	0.0235143
3851.15	0.0227611
3860.79	0.022914
3870.43	0.0234232
3880.07	0.0231044
3889.72	0.0223419
3899.36	0.0236799
3909	0.0240787
3918.64	0.0267215
3928.29	0.0242366
3937.93	0.025851
3947.57	0.0241001
3957.21	0.0259288
3966.86	0.0256285
3976.5	0.0260089
3986.14	0.0254387
3995.78	0.0289448
