Measurement: Infrared, Infrared Data Processed
Mineral: Fluor-uvite
Rruff sample: R050172
Ideal chemistry: CaMg_3_(Al_5_Mg)(Si_6_O_18_)(BO_3_)_3_(OH)_3_F
Locality: Pierrepont, New York, USA
Source: Marcus Origlieri
Description: Black prismatic crystal
Measured chemistry: (Ca_0.64_Na_0.36_)(Mg_0.56_Fe^2+^_0.34_Al_0.08_Ti_0.02_)_3_(Mg_1.00_Al_5.00_)(BO_3_)_3_Si_6.00_O_18_((OH)_3.45_F_0.55_)
x	intensity
374.123	0.211684
383.765	0.185302
393.407	0.217802
403.05	0.236702
412.692	0.253821
422.334	0.242249
431.976	0.234094
441.619	0.253862
451.261	0.247393
460.904	0.255598
470.546	0.261687
480.188	0.261035
489.83	0.248148
499.473	0.229523
509.115	0.200992
518.758	0.176553
528.4	0.153195
538.042	0.133337
547.684	0.127183
557.327	0.128974
566.969	0.1311
576.611	0.117378
586.254	0.104098
595.896	0.101935
605.538	0.104171
615.181	0.087048
624.823	0.0717546
634.466	0.0639726
644.108	0.076589
653.75	0.0698372
663.393	0.0705498
673.035	0.0783428
682.677	0.0861358
692.319	0.104544
701.962	0.131359
711.604	0.126368
721.246	0.0975243
730.889	0.0771127
740.531	0.0596779
750.173	0.067045
759.816	0.0797881
769.458	0.0886374
779.101	0.0798149
788.743	0.0646945
798.385	0.0370759
808.028	0.0293046
817.67	0.0283666
827.312	0.0282151
836.955	0.0297827
846.597	0.0331731
856.239	0.0380757
865.881	0.045283
875.524	0.0563639
885.166	0.067912
894.808	0.0794451
904.451	0.0965756
914.093	0.119397
923.736	0.149132
933.378	0.184929
943.02	0.217784
952.663	0.237526
962.305	0.238951
971.947	0.234407
981.59	0.221457
991.232	0.195316
1000.87	0.166099
1010.52	0.151637
1020.16	0.16179
1029.8	0.166576
1039.44	0.160822
1049.09	0.144295
1058.73	0.134048
1068.37	0.135813
1078.01	0.133433
1087.65	0.117061
1097.3	0.0906463
1106.94	0.0641452
1116.58	0.0427469
1126.22	0.0271872
1135.87	0.0186645
1145.51	0.0156219
1155.15	0.0149126
1164.79	0.0156026
1174.44	0.0172737
1184.08	0.0214075
1193.72	0.0308416
1203.36	0.0507672
1213.01	0.0769537
1222.65	0.0997171
1232.29	0.113885
1241.93	0.117121
1251.58	0.113812
1261.22	0.108012
1270.86	0.100757
1280.5	0.0937618
1290.14	0.0859444
1299.79	0.0768852
1309.43	0.0702878
1319.07	0.0674152
1328.71	0.0678504
1338.36	0.0744584
1348	0.0712905
1357.64	0.0613947
1367.28	0.0493779
1376.92	0.0375309
1386.57	0.0307142
1396.21	0.0259395
1405.85	0.0210262
1415.49	0.0167871
1425.14	0.0133497
1434.78	0.0103299
1444.42	0.00835833
1454.06	0.00725245
1463.71	0.00666684
1473.35	0.0066483
1482.99	0.00583475
1492.63	0.00574266
1502.28	0.0055308
1511.92	0.00574422
1521.56	0.00621082
1531.2	0.00548904
1540.85	0.00633793
1550.49	0.00553909
1560.13	0.00677167
1569.77	0.00590869
1579.41	0.00607234
1589.06	0.00585867
1598.7	0.00638486
1608.34	0.00659678
1617.98	0.00729617
1627.63	0.00710599
1637.27	0.00717973
1646.91	0.00747883
1656.55	0.00705319
1666.19	0.00687294
1675.84	0.00717868
1685.48	0.00744324
1695.12	0.00764364
1704.77	0.0069033
1714.41	0.00717673
1724.05	0.00676598
1733.69	0.00831588
1743.33	0.00699066
1752.98	0.00623951
1762.62	0.00633841
1772.26	0.00719275
1781.9	0.00665129
1791.55	0.00667297
1801.19	0.00671835
1810.83	0.00632866
1820.47	0.00685141
1830.12	0.00634213
1839.76	0.00606632
1849.4	0.00602777
1859.04	0.00639965
1868.68	0.0066056
1878.33	0.00631751
1887.97	0.00605159
1897.61	0.00565551
1907.25	0.00575236
1916.9	0.00594437
1926.54	0.00493844
1936.18	0.00524455
1945.82	0.00541827
1955.46	0.00437842
1965.11	0.00559981
1974.75	0.00553381
1984.39	0.00709601
1994.04	0.00712926
2003.68	0.00380241
2013.32	0.00669296
2022.96	0.00588521
2032.6	0.00812383
2042.25	0.0059908
2051.89	0.00692124
2061.53	0.00651954
2071.17	0.0073105
2080.82	0.00683146
2090.46	0.00594032
2100.1	0.00767011
2109.74	0.00697585
2119.39	0.00695972
2129.03	0.00500082
2138.67	0.00719585
2148.31	0.0076202
2157.95	0.00511548
2167.6	0.0096621
2177.24	0.00543824
2186.88	0.00909934
2196.52	0.00909538
2206.17	0.0102012
2215.81	0.0082946
2225.45	0.00950877
2235.09	0.00913554
2244.74	0.00871251
2254.38	0.00847451
2264.02	0.00868432
2273.66	0.00918413
2283.3	0.0103036
2292.95	0.0092067
2302.59	0.00935795
2312.23	0.00930605
2321.87	0.0104968
2331.52	0.00984747
2341.16	0.0100667
2350.8	0.00905146
2360.44	0.00956578
2370.09	0.00934203
2379.73	0.00824724
2389.37	0.00824259
2399.01	0.00740134
2408.66	0.00777004
2418.3	0.00697636
2427.94	0.00684559
2437.58	0.00661051
2447.22	0.00655614
2456.87	0.00656404
2466.51	0.00561777
2476.15	0.00551629
2485.79	0.00563927
2495.44	0.00520373
2505.08	0.00546598
2514.72	0.00556636
2524.36	0.00482929
2534.01	0.00550311
2543.65	0.00548189
2553.29	0.00472361
2562.93	0.00626289
2572.57	0.0056587
2582.22	0.00596367
2591.86	0.00623595
2601.5	0.00639544
2611.14	0.00654345
2620.79	0.00741129
2630.43	0.00711671
2640.07	0.00705573
2649.71	0.00699066
2659.36	0.00725571
2669	0.00707599
2678.64	0.00658026
2688.28	0.00666179
2697.93	0.00656637
2707.57	0.00693719
2717.21	0.00660296
2726.85	0.00617907
2736.49	0.00715536
2746.14	0.00701746
2755.78	0.00763961
2765.42	0.00774408
2775.06	0.00705955
2784.71	0.00721596
2794.35	0.00736473
2803.99	0.00720508
2813.63	0.00765652
2823.28	0.0078125
2832.92	0.00787734
2842.56	0.00824963
2852.2	0.00846686
2861.84	0.00891667
2871.49	0.00845439
2881.13	0.00869713
2890.77	0.00880756
2900.41	0.00877319
2910.06	0.0088719
2919.7	0.0089323
2929.34	0.00904031
2938.98	0.00859611
2948.62	0.00937059
2958.27	0.00899404
2967.91	0.00800571
2977.55	0.00723613
2987.2	0.00728378
2996.84	0.00650377
3006.48	0.00652794
3016.12	0.00682284
3025.76	0.00633838
3035.41	0.0063759
3045.05	0.00661591
3054.69	0.00654272
3064.33	0.00679852
3073.98	0.00625439
3083.62	0.00654652
3093.26	0.00645706
3102.9	0.00669625
3112.55	0.00639452
3122.19	0.00653414
3131.83	0.00677023
3141.47	0.00783666
3151.11	0.00692622
3160.76	0.00705683
3170.4	0.00575776
3180.04	0.00770363
3189.68	0.00686702
3199.33	0.0068068
3208.97	0.00649012
3218.61	0.0065593
3228.25	0.00681461
3237.9	0.00604818
3247.54	0.00647396
3257.18	0.00638475
3266.82	0.00639351
3276.47	0.00601188
3286.11	0.00661321
3295.75	0.00584107
3305.39	0.00533238
3315.03	0.00634897
3324.68	0.00646624
3334.32	0.00576217
3343.96	0.00665286
3353.6	0.00552943
3363.25	0.00639076
3372.89	0.00645432
3382.53	0.00644215
3392.17	0.00533612
3401.82	0.00606889
3411.46	0.00648724
3421.1	0.00512862
3430.74	0.00506734
3440.39	0.00626988
3450.03	0.0060874
3459.67	0.00490949
3469.31	0.00595466
3478.95	0.00595767
3488.6	0.00694743
3498.24	0.00719698
3507.88	0.00688369
3517.52	0.00806234
3527.17	0.00988975
3536.81	0.011903
3546.45	0.0162908
3556.09	0.0170416
3565.74	0.0187162
3575.38	0.0179397
3585.02	0.0155317
3594.66	0.00904217
3604.3	0.00444435
3613.95	0.00105812
3623.59	0.000557416
3633.23	-0.000429811
3642.87	-0.00261279
3652.52	-0.00157411
3662.16	-0.0014786
3671.8	-0.000562098
3681.44	-0.00208408
3691.09	-0.00380319
3700.73	-0.00147456
3710.37	-0.000862657
3720.01	-0.00228365
3729.66	-0.00266266
3739.3	-0.00211787
3748.94	-0.000478746
3758.58	-0.00246346
3768.22	-0.00202085
3777.87	-0.00192293
3787.51	-0.00339917
3797.15	-0.00355575
3806.79	-0.00378378
3816.44	-0.00121485
3826.08	-0.00320521
3835.72	-0.00327924
3845.36	-0.00262826
3855.01	-0.00137676
3864.65	-0.00447628
3874.29	-0.00392731
3883.93	-0.00437028
3893.57	-0.00510534
3903.22	-0.00506478
3912.86	-0.00491046
3922.5	-0.00622075
3932.14	-0.00421964
3941.79	-0.00575028
3951.43	-0.00560853
3961.07	-0.00576924
3970.71	-0.00470783
3980.36	-0.00490521
3990	-0.00592474
3999.64	-0.00535369
