Measurement: Infrared, Infrared Data Processed
Mineral: Fluorite
Rruff sample: R050046
Ideal chemistry: CaF_2_
Locality: Shangbao, Lei Yang, Hunan Province, China
Source: Eugene Schlepp
Description: Pale purple crystal
Measured chemistry: Ca_1.000_ F_2.000_
x	intensity
399.193	0
408.835	0.0613177
418.477	0.0553536
428.12	0.0465153
437.762	0.0404139
447.404	0.0350529
457.047	0.02777
466.689	0.0221779
476.331	0.0165793
485.974	0.0139141
495.616	0.0115038
505.258	0.0100783
514.901	0.00955026
524.543	0.00828263
534.185	0.00817032
543.828	0.00755746
553.47	0.00778197
563.112	0.00725359
572.755	0.00616792
582.397	0.00568717
592.039	0.00500759
601.682	0.00356632
611.324	0.00278617
620.966	0.0028045
630.609	0.00222884
640.251	0.00251076
649.893	0.00178367
659.536	0.00145383
669.178	0.00125757
678.82	0.00117055
688.463	0.00156567
698.105	0.00117345
707.747	0.0011604
717.39	0.00127504
727.032	0.00105296
736.674	0.00134531
746.317	0.000983294
755.959	0.000697599
765.601	0.000824034
775.244	0.00120987
784.886	0.000685541
794.528	0.000483041
804.171	0.000797622
813.813	0.000490698
823.455	0.000546319
833.098	0.000464452
842.74	0.000163841
852.382	0.000407449
862.025	0.000245137
871.667	0.000394034
881.309	0.000352043
890.952	0.000193598
900.594	0.000509102
910.236	0.000459335
919.879	0.000489657
929.521	0.000501699
939.163	0.000614547
948.806	0.000755498
958.448	0.000615551
968.09	0.000732067
977.733	0.000761494
987.375	0.000988064
997.017	0.00106887
1006.66	0.00104278
1016.3	0.00127128
1025.94	0.00171319
1035.59	0.00169675
1045.23	0.00179268
1054.87	0.00186285
1064.51	0.00184445
1074.16	0.00198268
1083.8	0.00220364
1093.44	0.0020813
1103.08	0.00205695
1112.72	0.0016256
1122.37	0.00159291
1132.01	0.00141256
1141.65	0.00114675
1151.3	0.00118514
1160.94	0.00132986
1170.58	0.00120921
1180.22	0.00136151
1189.86	0.00113293
1199.51	0.00121901
1209.15	0.00120361
1218.79	0.00117327
1228.43	0.00129728
1238.08	0.00121137
1247.72	0.00105824
1257.36	0.00084423
1267	0.000599608
1276.64	0.000589552
1286.29	0.000609058
1295.93	0.000835538
1305.57	0.000881007
1315.21	0.000962047
1324.86	0.000953826
1334.5	0.00108779
1344.14	0.000972026
1353.78	0.00100971
1363.43	0.00123687
1373.07	0.000969588
1382.71	0.00127627
1392.35	0.00123754
1401.99	0.00105133
1411.64	0.00104722
1421.28	0.00130695
1430.92	0.00146397
1440.57	0.00165152
1450.21	0.00161544
1459.85	0.00166983
1469.49	0.00105167
1479.13	0.00148493
1488.78	0.00135012
1498.42	0.00133683
1508.06	0.00136017
1517.7	0.00128225
1527.35	0.00121215
1536.99	0.000918344
1546.63	0.00149995
1556.27	0.00190096
1565.91	0.0019481
1575.56	0.00171554
1585.2	0.0016389
1594.84	0.00162063
1604.48	0.00161004
1614.13	0.00143292
1623.77	0.00147735
1633.41	0.000969391
1643.05	0.000971404
1652.7	0.000723682
1662.34	0.00123367
1671.98	0.00127404
1681.62	0.0012296
1691.27	0.00138588
1700.91	0.00195455
1710.55	0.00154864
1720.19	0.00161128
1729.84	0.000970636
1739.48	0.00152247
1749.12	0.00124529
1758.76	0.000948366
1768.4	0.00139776
1778.05	0.00113417
1787.69	0.00144621
1797.33	0.00128064
1806.97	0.00120835
1816.62	0.000946448
1826.26	0.00142231
1835.9	0.000792225
1845.54	0.00145937
1855.18	0.00119812
1864.83	0.00131384
1874.47	0.00140168
1884.11	0.00113344
1893.75	0.000730876
1903.4	-0.000364734
1913.04	0.000824542
1922.68	-1.46794e-05
1932.32	0.000636905
1941.97	0.000310803
1951.61	0.000773771
1961.25	-0.000331602
1970.89	-0.00140049
1980.54	0.00267121
1990.18	-0.000266259
1999.82	0.00140983
2009.46	0.00251561
2019.11	0.00058961
2028.75	0.00105374
2038.39	0.000880737
2048.03	0.00214026
2057.67	0.00121125
2067.32	0.000862873
2076.96	0.00217189
2086.6	0.00131329
2096.24	0.00164438
2105.89	0.00245453
2115.53	0.0024467
2125.17	0.000735481
2134.81	-0.000453398
2144.45	9.19693e-05
2154.1	-0.000286455
2163.74	0.00318634
2173.38	0.00310726
2183.02	0.00234011
2192.67	0.00194611
2202.31	0.00218078
2211.95	0.00277059
2221.59	0.00270027
2231.24	0.00127776
2240.88	0.00265325
2250.52	0.00291518
2260.16	0.00168571
2269.8	0.00325907
2279.45	0.00317675
2289.09	0.00396637
2298.73	0.0033541
2308.38	0.00270924
2318.02	0.00310331
2327.66	0.00222302
2337.3	0.00241379
2346.94	0.00191596
2356.59	0.00202634
2366.23	0.00152848
2375.87	0.00184108
2385.51	0.000909372
2395.16	0.00149298
2404.8	0.00130704
2414.44	0.00145849
2424.08	0.00185866
2433.72	0.001199
2443.37	0.00253108
2453.01	0.00222609
2462.65	0.0011172
2472.29	0.00162195
2481.94	0.00131866
2491.58	0.00175906
2501.22	0.0013904
2510.86	0.00170233
2520.51	0.00129994
2530.15	0.0013054
2539.79	0.00229854
2549.43	0.00349378
2559.07	0.00197391
2568.72	0.00232161
2578.36	0.00245261
2588	0.00214756
2597.64	0.00306394
2607.29	0.00210693
2616.93	0.00224896
2626.57	0.0025182
2636.21	0.00285683
2645.86	0.00208318
2655.5	0.00290102
2665.14	0.00130046
2674.78	0.00119152
2684.43	0.00166969
2694.07	0.000890144
2703.71	0.0015657
2713.35	0.000624814
2722.99	0.000704636
2732.64	0.0011852
2742.28	0.00133956
2751.92	0.00091051
2761.56	0.000681597
2771.21	0.00159755
2780.85	0.00115252
2790.49	0.0012246
2800.13	0.00117263
2809.78	0.00105711
2819.42	0.00147862
2829.06	0.00145126
2838.7	0.00119227
2848.34	0.000619469
2857.99	0.000959458
2867.63	0.00130214
2877.27	0.00113766
2886.91	0.000571352
2896.56	-6.55609e-05
2906.2	0.000929181
2915.84	0.000260694
2925.48	0.00119258
2935.13	0.000413948
2944.77	0.000661327
2954.41	-0.000495753
2964.05	0.00101371
2973.7	-0.000368785
2983.34	0.000726024
2992.98	0.000249377
3002.62	0.000864959
3012.26	0.000680529
3021.91	0.000711125
3031.55	0.000724098
3041.19	-0.000192732
3050.83	-8.01341e-05
3060.48	0.000753843
3070.12	0.000233487
3079.76	0.000593135
3089.4	4.50725e-06
3099.05	0.000391205
3108.69	2.08278e-05
3118.33	0.00141664
3127.97	0.000519242
3137.61	0.00107242
3147.26	0.000736821
3156.9	0.000127648
3166.54	0.00109862
3176.18	0.000920315
3185.83	0.00065915
3195.47	-0.000379346
3205.11	0.00184307
3214.75	-8.7601e-05
3224.4	0.000834287
3234.04	0.000560122
3243.68	0.000538249
3253.32	-0.000862298
3262.97	0.00188226
3272.61	0.00129787
3282.25	-0.000378057
3291.89	-0.000726011
3301.53	-4.37479e-05
3311.18	-0.00153418
3320.82	0.000176538
3330.46	-0.00074431
3340.1	-0.000528737
3349.75	-0.000695225
3359.39	0.000663921
3369.03	-0.00138999
3378.67	0.000634336
3388.32	9.99663e-06
3397.96	6.66267e-07
3407.6	6.06907e-05
3417.24	-0.000829797
3426.89	-0.00141545
3436.53	-0.00108241
3446.17	-0.00226371
3455.81	-0.000346065
3465.45	-0.00132456
3475.1	6.59816e-05
3484.74	-0.000261961
3494.38	3.85369e-05
3504.02	-0.000972471
3513.67	0.000659945
3523.31	-0.000453676
3532.95	-1.58385e-05
3542.59	7.34492e-05
3552.24	-0.00235132
3561.88	-0.000235996
3571.52	0.00204164
3581.16	0.000163853
3590.8	-0.000180441
3600.45	-0.00108228
3610.09	-0.00181835
3619.73	0.000105051
3629.37	6.32976e-05
3639.02	-0.00108811
3648.66	-0.00140338
3658.3	-0.000599657
3667.94	-0.00105159
3677.59	-0.00187461
3687.23	-0.000445159
3696.87	-0.000838432
3706.51	-0.000920152
3716.16	0.000775585
3725.8	0.000318136
3735.44	-0.00110722
3745.08	-0.00112602
3754.72	0.000285224
3764.37	0.000477853
3774.01	0.00139761
3783.65	-3.7225e-05
3793.29	0.000290028
3802.94	0.000869941
3812.58	1.00046e-05
3822.22	-0.00118432
3831.86	-0.00135882
3841.51	-0.00037478
3851.15	-0.002042
3860.79	-0.00141963
3870.43	-0.00123205
3880.07	0.000176299
3889.72	-0.000623105
3899.36	0.000657351
3909	-0.000874756
3918.64	-0.00146465
3928.29	-0.0011722
3937.93	-0.00148302
3947.57	-0.00214911
3957.21	-0.0014264
3966.86	-0.000220589
3976.5	6.67576e-05
3986.14	0.000745553
3995.78	-0.000575206
