Measurement: Infrared, Infrared Data Processed
Mineral: Fluorcalciomicrolite
Rruff sample: R050625
Ideal chemistry: (Ca,Na)_2_Ta^5+^_2_O_6_F
Locality: Urubu mine, Itinga, Minas Gerais, Brazil
Source: Gemological Center
Description: Yellow fragment
Measured chemistry: (Ca_0.98_Na_0.92_)_∑=1.90_(Ta_1.88_Nb_0.11_Sn_0.01_)_∑=2_O_6_[F_0.86_(OH)_0.01_]_∑=0.87_
x	intensity
399.193	0.217631
408.835	0.199664
418.477	0.181301
428.12	0.166182
437.762	0.148731
447.404	0.129803
457.047	0.111377
466.689	0.0917524
476.331	0.0795338
485.974	0.0930313
495.616	0.137912
505.258	0.223488
514.901	0.299938
524.543	0.353072
534.185	0.382805
543.828	0.387051
553.47	0.381156
563.112	0.348562
572.755	0.313145
582.397	0.283162
592.039	0.256567
601.682	0.23429
611.324	0.217218
620.966	0.202985
630.609	0.190795
640.251	0.181563
649.893	0.173239
659.536	0.167469
669.178	0.15626
678.82	0.143799
688.463	0.130905
698.105	0.119785
707.747	0.110752
717.39	0.100937
727.032	0.0910571
736.674	0.0820268
746.317	0.0725013
755.959	0.0626148
765.601	0.0515767
775.244	0.041892
784.886	0.0325748
794.528	0.0268117
804.171	0.023402
813.813	0.0221289
823.455	0.0206891
833.098	0.0196282
842.74	0.0183024
852.382	0.0174327
862.025	0.0173753
871.667	0.0173428
881.309	0.018134
890.952	0.0187726
900.594	0.0195867
910.236	0.0196319
919.879	0.0189991
929.521	0.0179185
939.163	0.0164948
948.806	0.0155073
958.448	0.0143888
968.09	0.0145735
977.733	0.0143754
987.375	0.0147522
997.017	0.0155359
1006.66	0.0165758
1016.3	0.0170573
1025.94	0.0166273
1035.59	0.0164848
1045.23	0.0158602
1054.87	0.0154616
1064.51	0.0144795
1074.16	0.0136083
1083.8	0.0130358
1093.44	0.0126485
1103.08	0.0120428
1112.72	0.0111866
1122.37	0.0104963
1132.01	0.0101222
1141.65	0.00972848
1151.3	0.00908225
1160.94	0.00887107
1170.58	0.00837412
1180.22	0.00858643
1189.86	0.00827926
1199.51	0.00871671
1209.15	0.00829255
1218.79	0.00841559
1228.43	0.0088055
1238.08	0.00916826
1247.72	0.00950272
1257.36	0.0103089
1267	0.0110958
1276.64	0.011714
1286.29	0.0117438
1295.93	0.0120292
1305.57	0.0129155
1315.21	0.012862
1324.86	0.0133706
1334.5	0.0136462
1344.14	0.0143731
1353.78	0.0145699
1363.43	0.0151177
1373.07	0.0152821
1382.71	0.0159793
1392.35	0.0168218
1401.99	0.0175283
1411.64	0.0177932
1421.28	0.0182187
1430.92	0.0187628
1440.57	0.0191682
1450.21	0.0191896
1459.85	0.0189369
1469.49	0.019377
1479.13	0.0206598
1488.78	0.0212299
1498.42	0.0215807
1508.06	0.0223707
1517.7	0.0227862
1527.35	0.0231866
1536.99	0.0239726
1546.63	0.0246003
1556.27	0.0255525
1565.91	0.0260587
1575.56	0.0268305
1585.2	0.0268983
1594.84	0.0270233
1604.48	0.0277337
1614.13	0.0275883
1623.77	0.0281113
1633.41	0.0290207
1643.05	0.0292531
1652.7	0.0304161
1662.34	0.0297364
1671.98	0.0301983
1681.62	0.0300828
1691.27	0.030244
1700.91	0.0311446
1710.55	0.0307101
1720.19	0.0312845
1729.84	0.0316159
1739.48	0.0303009
1749.12	0.0307422
1758.76	0.0319308
1768.4	0.0344452
1778.05	0.0341336
1787.69	0.0342182
1797.33	0.0354251
1806.97	0.0358253
1816.62	0.0363069
1826.26	0.0366278
1835.9	0.0371417
1845.54	0.0389557
1855.18	0.0395486
1864.83	0.0389845
1874.47	0.0396355
1884.11	0.0409738
1893.75	0.0410292
1903.4	0.0410185
1913.04	0.0420044
1922.68	0.0419943
1932.32	0.0429468
1941.97	0.0437692
1951.61	0.0428153
1961.25	0.042964
1970.89	0.0421346
1980.54	0.0529067
1990.18	0.0496227
1999.82	0.0486362
2009.46	0.0489896
2019.11	0.0484974
2028.75	0.0486045
2038.39	0.0471707
2048.03	0.0480918
2057.67	0.050593
2067.32	0.0498427
2076.96	0.0519247
2086.6	0.0543754
2096.24	0.0521426
2105.89	0.0533921
2115.53	0.0547995
2125.17	0.0534737
2134.81	0.0520956
2144.45	0.0535249
2154.1	0.052241
2163.74	0.0621345
2173.38	0.0535762
2183.02	0.0576365
2192.67	0.0559614
2202.31	0.0577796
2211.95	0.0604231
2221.59	0.0606427
2231.24	0.0610442
2240.88	0.059705
2250.52	0.0612624
2260.16	0.0616672
2269.8	0.0626326
2279.45	0.0648215
2289.09	0.0653533
2298.73	0.0654179
2308.38	0.0676692
2318.02	0.0679178
2327.66	0.0682172
2337.3	0.0681871
2346.94	0.0686104
2356.59	0.0688319
2366.23	0.0701937
2375.87	0.0696594
2385.51	0.0695554
2395.16	0.0714842
2404.8	0.0718716
2414.44	0.0709874
2424.08	0.0715717
2433.72	0.073484
2443.37	0.0736691
2453.01	0.075131
2462.65	0.0749843
2472.29	0.0760885
2481.94	0.0773085
2491.58	0.077314
2501.22	0.0769974
2510.86	0.0791112
2520.51	0.0773403
2530.15	0.079238
2539.79	0.079708
2549.43	0.0812091
2559.07	0.0806646
2568.72	0.0803396
2578.36	0.0821123
2588	0.0818273
2597.64	0.0816006
2607.29	0.0829515
2616.93	0.0829881
2626.57	0.0849801
2636.21	0.0864209
2645.86	0.0863044
2655.5	0.086886
2665.14	0.0865003
2674.78	0.0859933
2684.43	0.087696
2694.07	0.0890554
2703.71	0.0883693
2713.35	0.0885378
2722.99	0.0906278
2732.64	0.0897642
2742.28	0.0906979
2751.92	0.0922558
2761.56	0.0915384
2771.21	0.0934831
2780.85	0.0943246
2790.49	0.0941957
2800.13	0.0954547
2809.78	0.0963469
2819.42	0.0952689
2829.06	0.0971481
2838.7	0.098035
2848.34	0.0966346
2857.99	0.0982534
2867.63	0.100468
2877.27	0.09942
2886.91	0.100393
2896.56	0.100808
2906.2	0.101204
2915.84	0.101642
2925.48	0.101312
2935.13	0.102095
2944.77	0.104819
2954.41	0.102543
2964.05	0.105552
2973.7	0.105704
2983.34	0.106023
2992.98	0.107446
3002.62	0.107089
3012.26	0.10912
3021.91	0.110166
3031.55	0.110268
3041.19	0.110077
3050.83	0.110938
3060.48	0.113543
3070.12	0.112011
3079.76	0.11112
3089.4	0.112566
3099.05	0.114486
3108.69	0.115669
3118.33	0.115339
3127.97	0.114372
3137.61	0.116472
3147.26	0.117318
3156.9	0.11451
3166.54	0.118289
3176.18	0.117379
3185.83	0.120017
3195.47	0.119554
3205.11	0.118584
3214.75	0.121955
3224.4	0.11991
3234.04	0.122101
3243.68	0.121328
3253.32	0.121612
3262.97	0.124315
3272.61	0.124878
3282.25	0.124584
3291.89	0.124467
3301.53	0.127164
3311.18	0.127742
3320.82	0.127631
3330.46	0.127798
3340.1	0.129759
3349.75	0.131567
3359.39	0.129373
3369.03	0.127503
3378.67	0.128257
3388.32	0.133293
3397.96	0.131785
3407.6	0.135432
3417.24	0.129162
3426.89	0.133108
3436.53	0.131825
3446.17	0.135521
3455.81	0.133488
3465.45	0.131749
3475.1	0.135222
3484.74	0.132244
3494.38	0.135932
3504.02	0.13455
3513.67	0.134935
3523.31	0.133115
3532.95	0.134241
3542.59	0.138537
3552.24	0.13265
3561.88	0.137036
3571.52	0.133398
3581.16	0.137891
3590.8	0.136416
3600.45	0.133983
3610.09	0.133914
3619.73	0.132939
3629.37	0.138233
3639.02	0.131766
3648.66	0.138051
3658.3	0.136154
3667.94	0.135969
3677.59	0.136724
3687.23	0.139179
3696.87	0.137334
3706.51	0.142277
3716.16	0.139105
3725.8	0.141668
3735.44	0.143657
3745.08	0.14299
3754.72	0.142284
3764.37	0.140294
3774.01	0.142776
3783.65	0.143546
3793.29	0.145549
3802.94	0.145626
3812.58	0.147194
3822.22	0.146573
3831.86	0.150548
3841.51	0.145445
3851.15	0.153116
3860.79	0.150979
3870.43	0.141435
3880.07	0.147376
3889.72	0.147634
3899.36	0.150789
3909	0.154014
3918.64	0.154429
3928.29	0.150238
3937.93	0.155191
3947.57	0.156986
3957.21	0.153402
3966.86	0.149935
3976.5	0.150896
3986.14	0.15547
3995.78	0.154317
