Measurement: Infrared, Infrared Data Processed
Mineral: Fluorite
Rruff sample: R040099
Ideal chemistry: CaF_2_
Locality: Rock Candy mine, Grand Forks, British Columbia, Canada
Source: Bob Downs
Description: Pale purple fragment
Measured chemistry: Ca_0.99_F_2.00_
x	intensity
399.193	0
408.835	0.062122
418.477	0.0553037
428.12	0.0478674
437.762	0.0417979
447.404	0.0357388
457.047	0.0279694
466.689	0.0240518
476.331	0.0179575
485.974	0.0144259
495.616	0.0135178
505.258	0.0125105
514.901	0.0106477
524.543	0.0102369
534.185	0.00981465
543.828	0.00932466
553.47	0.0094774
563.112	0.00951096
572.755	0.00905879
582.397	0.00825314
592.039	0.00640036
601.682	0.00594539
611.324	0.00526754
620.966	0.00447235
630.609	0.00489432
640.251	0.00371283
649.893	0.00379451
659.536	0.00311669
669.178	0.00283883
678.82	0.00282528
688.463	0.00257589
698.105	0.00269291
707.747	0.00248459
717.39	0.00255381
727.032	0.00245708
736.674	0.00239666
746.317	0.0023446
755.959	0.00230026
765.601	0.00189549
775.244	0.00198516
784.886	0.00168116
794.528	0.00140787
804.171	0.00173474
813.813	0.00129895
823.455	0.00145043
833.098	0.00133297
842.74	0.00114026
852.382	0.00111411
862.025	0.00113474
871.667	0.00125415
881.309	0.00157356
890.952	0.001622
900.594	0.00156148
910.236	0.00140092
919.879	0.00139224
929.521	0.00170783
939.163	0.00154512
948.806	0.00208096
958.448	0.00266496
968.09	0.00356479
977.733	0.00412727
987.375	0.00526026
997.017	0.00516223
1006.66	0.00528733
1016.3	0.00471407
1025.94	0.00412755
1035.59	0.00466026
1045.23	0.0059239
1054.87	0.00631225
1064.51	0.00700134
1074.16	0.00631997
1083.8	0.0055545
1093.44	0.00546045
1103.08	0.00517607
1112.72	0.00444091
1122.37	0.00371358
1132.01	0.00292069
1141.65	0.00282635
1151.3	0.00259822
1160.94	0.00264359
1170.58	0.00247924
1180.22	0.00242829
1189.86	0.0022876
1199.51	0.0023296
1209.15	0.00230541
1218.79	0.00201427
1228.43	0.00202447
1238.08	0.00203639
1247.72	0.00237519
1257.36	0.0020313
1267	0.00215681
1276.64	0.00196553
1286.29	0.00203646
1295.93	0.00208429
1305.57	0.00212327
1315.21	0.00250787
1324.86	0.00229496
1334.5	0.00243324
1344.14	0.00251266
1353.78	0.00261505
1363.43	0.00296726
1373.07	0.00285944
1382.71	0.00290505
1392.35	0.00292684
1401.99	0.00277385
1411.64	0.00293951
1421.28	0.00331933
1430.92	0.00351824
1440.57	0.00337368
1450.21	0.00385468
1459.85	0.00376305
1469.49	0.00346325
1479.13	0.00288975
1488.78	0.00269665
1498.42	0.00269749
1508.06	0.00315845
1517.7	0.00282171
1527.35	0.00329077
1536.99	0.00345715
1546.63	0.00442744
1556.27	0.00560959
1565.91	0.00608173
1575.56	0.00576811
1585.2	0.0059849
1594.84	0.00597149
1604.48	0.00549667
1614.13	0.00483012
1623.77	0.00494777
1633.41	0.0040198
1643.05	0.004065
1652.7	0.00364369
1662.34	0.00366044
1671.98	0.00381036
1681.62	0.00312605
1691.27	0.00381877
1700.91	0.0037004
1710.55	0.00325536
1720.19	0.00324167
1729.84	0.00383593
1739.48	0.00304012
1749.12	0.00353723
1758.76	0.00346586
1768.4	0.00298223
1778.05	0.00231716
1787.69	0.00259017
1797.33	0.00336794
1806.97	0.00276382
1816.62	0.00241632
1826.26	0.00305231
1835.9	0.0029384
1845.54	0.00244538
1855.18	0.003199
1864.83	0.00304611
1874.47	0.00352769
1884.11	0.00295976
1893.75	0.00359066
1903.4	0.00329989
1913.04	0.00334664
1922.68	0.00287691
1932.32	0.0029831
1941.97	0.00389581
1951.61	0.00441836
1961.25	0.00245096
1970.89	0.00361038
1980.54	0.00748304
1990.18	0.00138792
1999.82	0.00338295
2009.46	0.00549378
2019.11	0.00526733
2028.75	0.00209795
2038.39	0.00637897
2048.03	0.00434609
2057.67	0.00587527
2067.32	0.00542728
2076.96	0.00418641
2086.6	0.00551673
2096.24	0.00423094
2105.89	0.00381833
2115.53	0.00381258
2125.17	0.00151779
2134.81	0.00159809
2144.45	0.00381049
2154.1	0.000809242
2163.74	0.0044127
2173.38	0.00538869
2183.02	0.00530734
2192.67	0.00507927
2202.31	0.00553127
2211.95	0.00479686
2221.59	0.00480484
2231.24	0.00585956
2240.88	0.00414707
2250.52	0.00470808
2260.16	0.00468585
2269.8	0.00573968
2279.45	0.0066282
2289.09	0.00529896
2298.73	0.00644251
2308.38	0.00579521
2318.02	0.00517509
2327.66	0.00488679
2337.3	0.0039834
2346.94	0.00396178
2356.59	0.00438968
2366.23	0.00296666
2375.87	0.00382847
2385.51	0.00251688
2395.16	0.00401716
2404.8	0.00260947
2414.44	0.00336566
2424.08	0.00416922
2433.72	0.00464632
2443.37	0.00500452
2453.01	0.00499634
2462.65	0.00414528
2472.29	0.00512714
2481.94	0.00382141
2491.58	0.00379036
2501.22	0.00426503
2510.86	0.00455563
2520.51	0.00474288
2530.15	0.00571372
2539.79	0.00447367
2549.43	0.00473657
2559.07	0.00557791
2568.72	0.00463949
2578.36	0.00488967
2588	0.00723543
2597.64	0.0055939
2607.29	0.00638354
2616.93	0.00544173
2626.57	0.00523689
2636.21	0.00667416
2645.86	0.00667406
2655.5	0.00550257
2665.14	0.0041735
2674.78	0.00457478
2684.43	0.00486133
2694.07	0.00449109
2703.71	0.00453827
2713.35	0.00457034
2722.99	0.00405549
2732.64	0.00414471
2742.28	0.00534446
2751.92	0.00447614
2761.56	0.00482903
2771.21	0.00462429
2780.85	0.00432824
2790.49	0.00559911
2800.13	0.0051851
2809.78	0.0055627
2819.42	0.00581333
2829.06	0.0050088
2838.7	0.00506394
2848.34	0.00589165
2857.99	0.0054738
2867.63	0.00512279
2877.27	0.00563503
2886.91	0.00517914
2896.56	0.00554603
2906.2	0.00537619
2915.84	0.00642526
2925.48	0.00595391
2935.13	0.00638369
2944.77	0.00556396
2954.41	0.00496292
2964.05	0.00585747
2973.7	0.00568531
2983.34	0.00424218
2992.98	0.00668026
3002.62	0.0053127
3012.26	0.00546897
3021.91	0.00552146
3031.55	0.00652577
3041.19	0.00610274
3050.83	0.00467694
3060.48	0.00584114
3070.12	0.00544908
3079.76	0.00473603
3089.4	0.00487322
3099.05	0.00571128
3108.69	0.00602214
3118.33	0.00609209
3127.97	0.00564012
3137.61	0.0062203
3147.26	0.00687304
3156.9	0.0065941
3166.54	0.00685706
3176.18	0.00702316
3185.83	0.00659746
3195.47	0.0066637
3205.11	0.00662918
3214.75	0.00705492
3224.4	0.00649474
3234.04	0.00649909
3243.68	0.00707476
3253.32	0.00688682
3262.97	0.00812021
3272.61	0.00906747
3282.25	0.00882135
3291.89	0.0079715
3301.53	0.00734036
3311.18	0.00778797
3320.82	0.00791619
3330.46	0.00756152
3340.1	0.00726838
3349.75	0.00791049
3359.39	0.00617011
3369.03	0.007526
3378.67	0.008206
3388.32	0.0066906
3397.96	0.00792219
3407.6	0.00853948
3417.24	0.00757905
3426.89	0.0063385
3436.53	0.00722501
3446.17	0.00869906
3455.81	0.00771212
3465.45	0.00589896
3475.1	0.00634892
3484.74	0.00879944
3494.38	0.00562929
3504.02	0.00681692
3513.67	0.0086743
3523.31	0.00829652
3532.95	0.00775799
3542.59	0.00717955
3552.24	0.00774387
3561.88	0.00747065
3571.52	0.00610812
3581.16	0.00638097
3590.8	0.00584165
3600.45	0.00505473
3610.09	0.00695035
3619.73	0.00739528
3629.37	0.00727499
3639.02	0.0054843
3648.66	0.0068009
3658.3	0.00599759
3667.94	0.00706111
3677.59	0.0067562
3687.23	0.00637644
3696.87	0.0079062
3706.51	0.00830206
3716.16	0.00717211
3725.8	0.00765325
3735.44	0.00672347
3745.08	0.00569944
3754.72	0.00773996
3764.37	0.00581649
3774.01	0.00596085
3783.65	0.00836546
3793.29	0.00756469
3802.94	0.00625635
3812.58	0.00991041
3822.22	0.00833136
3831.86	0.00658063
3841.51	0.00516681
3851.15	0.00943716
3860.79	0.00761454
3870.43	0.00593091
3880.07	0.00816003
3889.72	0.00620248
3899.36	0.00750488
3909	0.00837935
3918.64	0.00642771
3928.29	0.00791667
3937.93	0.00688009
3947.57	0.00789129
3957.21	0.00847214
3966.86	0.00518055
3976.5	0.00595706
3986.14	0.0081285
3995.78	0.00871234
