Measurement: Infrared, Infrared Data Processed
Mineral: Fluorapatite
Rruff sample: R050274
Ideal chemistry: Ca_5_(PO_4_)_3_F
Locality: Minas Gerais, Brazil
Source: Marcus Origlieri
Description: Aggregate of blue crystal fragments separated by veins of quartz
Measured chemistry: Ca_5.00_((P_0.97_Si_0.02_S_0.01_)O_4_)_3_(F_0.90_Cl_0.10_)
x	intensity
399.193	0.0175834
408.835	0.0141046
418.477	0.0143619
428.12	0.0139691
437.762	0.0146749
447.404	0.0150406
457.047	0.018348
466.689	0.0242974
476.331	0.0240474
485.974	0.0216752
495.616	0.0228411
505.258	0.0236326
514.901	0.0314058
524.543	0.0415133
534.185	0.0533425
543.828	0.0875459
553.47	0.154136
563.112	0.223334
572.755	0.212738
582.397	0.11842
592.039	0.116168
601.682	0.165793
611.324	0.0703052
620.966	0.0273283
630.609	0.015604
640.251	0.0124913
649.893	0.0125252
659.536	0.0113673
669.178	0.0117611
678.82	0.0118458
688.463	0.0119508
698.105	0.0117948
707.747	0.012185
717.39	0.013873
727.032	0.0149591
736.674	0.0157249
746.317	0.0158718
755.959	0.0161437
765.601	0.0159392
775.244	0.0161082
784.886	0.0173067
794.528	0.0183052
804.171	0.0197929
813.813	0.0214602
823.455	0.023215
833.098	0.0256508
842.74	0.0274417
852.382	0.030668
862.025	0.0347463
871.667	0.0393706
881.309	0.0447634
890.952	0.0502304
900.594	0.0588817
910.236	0.0713656
919.879	0.0866793
929.521	0.101256
939.163	0.119251
948.806	0.147399
958.448	0.18376
968.09	0.167749
977.733	0.204017
987.375	0.259883
997.017	0.315528
1006.66	0.366902
1016.3	0.407244
1025.94	0.411443
1035.59	0.378726
1045.23	0.319751
1054.87	0.258196
1064.51	0.202998
1074.16	0.153919
1083.8	0.13743
1093.44	0.141621
1103.08	0.0900924
1112.72	0.0553672
1122.37	0.0297345
1132.01	0.0174593
1141.65	0.0136409
1151.3	0.0113811
1160.94	0.0107709
1170.58	0.00936798
1180.22	0.0062904
1189.86	0.00585478
1199.51	0.00472721
1209.15	0.00403783
1218.79	0.00288525
1228.43	0.00178275
1238.08	0.00181461
1247.72	0.00127906
1257.36	0.0011056
1267	0.00138506
1276.64	0.000955925
1286.29	0.00131778
1295.93	0.0013769
1305.57	0.00134673
1315.21	0.00104815
1324.86	0.00140033
1334.5	0.00117317
1344.14	0.00153261
1353.78	0.00159681
1363.43	0.00203097
1373.07	0.00214157
1382.71	0.00230942
1392.35	0.00298973
1401.99	0.00444298
1411.64	0.00539469
1421.28	0.00687878
1430.92	0.0065391
1440.57	0.00603288
1450.21	0.00704507
1459.85	0.00696436
1469.49	0.00644405
1479.13	0.00612345
1488.78	0.00526651
1498.42	0.00513176
1508.06	0.00542673
1517.7	0.00482937
1527.35	0.00490675
1536.99	0.00516376
1546.63	0.00545768
1556.27	0.00586357
1565.91	0.00540125
1575.56	0.0057581
1585.2	0.00579212
1594.84	0.00557102
1604.48	0.00530176
1614.13	0.00515855
1623.77	0.00521002
1633.41	0.00517281
1643.05	0.0057542
1652.7	0.00561818
1662.34	0.00533949
1671.98	0.00526694
1681.62	0.00523137
1691.27	0.00466581
1700.91	0.00446864
1710.55	0.00389737
1720.19	0.00400678
1729.84	0.00338222
1739.48	0.00291456
1749.12	0.0023381
1758.76	0.00457672
1768.4	0.0040561
1778.05	0.00456059
1787.69	0.00430199
1797.33	0.00476912
1806.97	0.00492833
1816.62	0.00442238
1826.26	0.00443558
1835.9	0.00503709
1845.54	0.00482894
1855.18	0.0050498
1864.83	0.00406281
1874.47	0.00420261
1884.11	0.00374282
1893.75	0.00434185
1903.4	0.00246866
1913.04	0.0024832
1922.68	0.000889812
1932.32	0.00198805
1941.97	0.00178334
1951.61	0.00102763
1961.25	0.00119993
1970.89	-0.00226291
1980.54	7.00227e-05
1990.18	0.00402241
1999.82	0.000840876
2009.46	-0.00326557
2019.11	-0.000770897
2028.75	-0.0034305
2038.39	-0.00222117
2048.03	-0.000673997
2057.67	0.000606659
2067.32	0.000841351
2076.96	0.000427324
2086.6	0.000719523
2096.24	0.00147299
2105.89	0.00255886
2115.53	0.00245678
2125.17	0.00117091
2134.81	0.000144947
2144.45	-0.00179481
2154.1	-0.00410277
2163.74	-0.00110866
2173.38	-0.00184569
2183.02	0.00254677
2192.67	0.00054948
2202.31	0.00277379
2211.95	0.00638465
2221.59	0.00919061
2231.24	0.00699172
2240.88	0.00729166
2250.52	0.00773009
2260.16	0.00913796
2269.8	0.00719523
2279.45	0.00857227
2289.09	0.010973
2298.73	0.00964769
2308.38	0.0112242
2318.02	0.0104344
2327.66	0.0118811
2337.3	0.0106774
2346.94	0.0103785
2356.59	0.0116318
2366.23	0.0115692
2375.87	0.00921388
2385.51	0.0101242
2395.16	0.00864957
2404.8	0.0087195
2414.44	0.00836715
2424.08	0.00935677
2433.72	0.00912285
2443.37	0.0106541
2453.01	0.010235
2462.65	0.0100747
2472.29	0.0102449
2481.94	0.00984678
2491.58	0.00879118
2501.22	0.00980813
2510.86	0.00984695
2520.51	0.0113181
2530.15	0.00955169
2539.79	0.0097831
2549.43	0.0102141
2559.07	0.0105437
2568.72	0.00950071
2578.36	0.0105353
2588	0.00986612
2597.64	0.01011
2607.29	0.0110113
2616.93	0.0113051
2626.57	0.0120377
2636.21	0.0120031
2645.86	0.0115175
2655.5	0.0111178
2665.14	0.0117177
2674.78	0.0104618
2684.43	0.0115762
2694.07	0.0114695
2703.71	0.0117947
2713.35	0.010839
2722.99	0.0114018
2732.64	0.0113483
2742.28	0.0114663
2751.92	0.0130598
2761.56	0.0119363
2771.21	0.0119682
2780.85	0.0125645
2790.49	0.0129123
2800.13	0.0126489
2809.78	0.0134501
2819.42	0.0120389
2829.06	0.0119475
2838.7	0.0127039
2848.34	0.0118736
2857.99	0.0118605
2867.63	0.011297
2877.27	0.0112712
2886.91	0.0127155
2896.56	0.0114181
2906.2	0.0132573
2915.84	0.0127063
2925.48	0.0127262
2935.13	0.0129949
2944.77	0.0113737
2954.41	0.0128226
2964.05	0.0141484
2973.7	0.0128463
2983.34	0.0125598
2992.98	0.0131264
3002.62	0.0144878
3012.26	0.014812
3021.91	0.0153615
3031.55	0.0130129
3041.19	0.0133409
3050.83	0.0128807
3060.48	0.0139221
3070.12	0.0129986
3079.76	0.0140503
3089.4	0.0155498
3099.05	0.0131549
3108.69	0.0137347
3118.33	0.0139484
3127.97	0.0137129
3137.61	0.0158394
3147.26	0.013344
3156.9	0.0145698
3166.54	0.0134464
3176.18	0.0147618
3185.83	0.015856
3195.47	0.0162594
3205.11	0.0136865
3214.75	0.01388
3224.4	0.0152989
3234.04	0.0151486
3243.68	0.0154006
3253.32	0.0131371
3262.97	0.0158171
3272.61	0.0139373
3282.25	0.0180795
3291.89	0.0157071
3301.53	0.0152251
3311.18	0.016006
3320.82	0.0143421
3330.46	0.0156299
3340.1	0.0170164
3349.75	0.0176504
3359.39	0.0133191
3369.03	0.0173292
3378.67	0.019095
3388.32	0.0153636
3397.96	0.0184569
3407.6	0.0156454
3417.24	0.0167701
3426.89	0.0189979
3436.53	0.0163873
3446.17	0.0159566
3455.81	0.016701
3465.45	0.0177576
3475.1	0.0156857
3484.74	0.0144879
3494.38	0.0161215
3504.02	0.0182769
3513.67	0.0177167
3523.31	0.0182194
3532.95	0.021648
3542.59	0.0198993
3552.24	0.0167686
3561.88	0.0177738
3571.52	0.0145327
3581.16	0.0172839
3590.8	0.0139278
3600.45	0.015082
3610.09	0.0177976
3619.73	0.0155872
3629.37	0.0173832
3639.02	0.0183781
3648.66	0.0183281
3658.3	0.0176151
3667.94	0.0168649
3677.59	0.0146061
3687.23	0.0197154
3696.87	0.0152087
3706.51	0.016025
3716.16	0.0161656
3725.8	0.0172297
3735.44	0.0139273
3745.08	0.0193259
3754.72	0.0181731
3764.37	0.0160022
3774.01	0.0184073
3783.65	0.0177778
3793.29	0.0191871
3802.94	0.0138918
3812.58	0.0200774
3822.22	0.0160454
3831.86	0.019481
3841.51	0.0209304
3851.15	0.0176366
3860.79	0.0170406
3870.43	0.0184946
3880.07	0.019188
3889.72	0.017378
3899.36	0.0149928
3909	0.0164067
3918.64	0.0203761
3928.29	0.0120725
3937.93	0.0152129
3947.57	0.0195234
3957.21	0.0199247
3966.86	0.019121
3976.5	0.0158376
3986.14	0.0222933
3995.78	0.0200687
