Measurement: Infrared, Infrared Data Processed
Mineral: Fluor-uvite
Rruff sample: R050172
Ideal chemistry: CaMg_3_(Al_5_Mg)(Si_6_O_18_)(BO_3_)_3_(OH)_3_F
Locality: Pierrepont, New York, USA
Source: Marcus Origlieri
Description: Black prismatic crystal
Measured chemistry: (Ca_0.64_Na_0.36_)(Mg_0.56_Fe^2+^_0.34_Al_0.08_Ti_0.02_)_3_(Mg_1.00_Al_5.00_)(BO_3_)_3_Si_6.00_O_18_((OH)_3.45_F_0.55_)
x	intensity
50.1401	0.00580765
52.0686	0.00730084
53.9971	0.00805617
55.9255	0.0169896
57.854	0.0206208
59.7825	0.0189844
61.7109	0.0178206
63.6394	0.0193969
65.5679	0.0192966
67.4963	0.0191281
69.4248	0.020996
71.3533	0.0225495
73.2817	0.0240287
75.2102	0.0235467
77.1387	0.0230574
79.0671	0.0239361
80.9956	0.0252146
82.9241	0.0268605
84.8525	0.0272846
86.781	0.0260975
88.7095	0.0268052
90.6379	0.0282166
92.5664	0.0280544
94.4948	0.0279901
96.4233	0.0292998
98.3518	0.0313209
100.28	0.0328038
102.209	0.0336608
104.137	0.0345016
106.066	0.0349439
107.994	0.0352024
109.923	0.0368057
111.851	0.0392921
113.779	0.03976
115.708	0.0407148
117.636	0.0422249
119.565	0.0428386
121.493	0.0432823
123.422	0.0439207
125.35	0.0446535
127.279	0.0451266
129.207	0.0459066
131.136	0.0477113
133.064	0.0493173
134.993	0.0498729
136.921	0.0503609
138.85	0.0512969
140.778	0.0520829
142.707	0.0526932
144.635	0.0533173
146.563	0.0527952
148.492	0.053155
150.42	0.0542788
152.349	0.0543852
154.277	0.0535952
156.206	0.0537548
158.134	0.054138
160.063	0.0539697
161.991	0.0537375
163.92	0.0532464
165.848	0.0524525
167.777	0.0527254
169.705	0.0533089
171.633	0.0532653
173.562	0.0538701
175.49	0.0549628
177.419	0.0552712
179.347	0.0554496
181.276	0.0562501
183.204	0.0573325
185.133	0.0587179
187.061	0.0597121
188.99	0.0601378
190.918	0.0608108
192.847	0.0619535
194.775	0.0628077
196.704	0.0629423
198.632	0.0634166
200.56	0.0641623
202.489	0.0647258
204.417	0.0648426
206.346	0.0652605
208.274	0.0658313
210.203	0.0661046
212.131	0.0660003
214.06	0.0660523
215.988	0.066183
217.917	0.066647
219.845	0.0673612
221.774	0.0675836
223.702	0.0667997
225.631	0.065735
227.559	0.065089
229.488	0.0645365
231.416	0.0649086
233.344	0.0657792
235.273	0.066452
237.201	0.067367
239.13	0.0682913
241.058	0.0689312
242.987	0.0696104
244.915	0.0705694
246.844	0.0714359
248.772	0.0723808
250.701	0.0731211
252.629	0.074692
254.558	0.0761726
256.486	0.0767006
258.414	0.0771725
260.343	0.0780212
262.271	0.078955
264.2	0.0797637
266.128	0.0801942
268.057	0.0803835
269.985	0.080104
271.914	0.0798082
273.842	0.0794946
275.771	0.0794409
277.699	0.0800023
279.628	0.0805944
281.556	0.0810571
283.485	0.0815459
285.413	0.0823237
287.341	0.0837028
289.27	0.0852376
291.198	0.086092
293.127	0.0866388
295.055	0.0873672
296.984	0.0880047
298.912	0.0888268
300.841	0.0899713
302.769	0.0913919
304.698	0.0919404
306.626	0.0928686
308.555	0.0939985
310.483	0.0945256
312.411	0.0944788
314.34	0.0937093
316.269	0.0927398
318.197	0.0917706
320.125	0.0908287
322.054	0.0896773
323.982	0.0884025
325.911	0.0870614
327.839	0.0858134
329.768	0.0850762
331.696	0.0852524
333.625	0.0861054
335.553	0.0874217
337.482	0.0885733
339.41	0.0895764
341.339	0.0903872
343.267	0.0906435
345.195	0.0908526
347.124	0.0913086
349.052	0.0921312
350.981	0.0934396
352.909	0.0943847
354.838	0.0952649
356.766	0.0965425
358.695	0.0976151
360.623	0.0985115
362.552	0.0995863
364.48	0.10013
366.409	0.100247
368.337	0.100598
370.265	0.100756
372.194	0.100318
374.122	0.100691
376.051	0.101618
377.979	0.101966
379.908	0.102456
381.836	0.10298
383.765	0.10397
385.693	0.104734
387.622	0.105363
389.55	0.106491
391.479	0.10738
393.407	0.108476
395.336	0.109879
397.264	0.111173
399.192	0.112432
401.121	0.113712
403.049	0.1148
404.978	0.115708
406.906	0.116712
408.835	0.11787
410.763	0.11868
412.692	0.119139
414.62	0.119402
416.549	0.119232
418.477	0.118503
420.406	0.117376
422.334	0.116446
424.262	0.11565
426.191	0.115465
428.12	0.11601
430.048	0.116754
431.976	0.118084
433.905	0.119404
435.833	0.121042
437.762	0.122762
439.69	0.123852
441.619	0.124346
443.547	0.124526
445.476	0.124581
447.404	0.125057
449.333	0.124997
451.261	0.124808
453.19	0.125466
455.118	0.12611
457.046	0.126937
458.975	0.128068
460.903	0.129003
462.832	0.13003
464.76	0.131085
466.689	0.131919
468.617	0.133178
470.546	0.13402
472.474	0.13426
474.403	0.134247
476.331	0.134326
478.26	0.134655
480.188	0.134577
482.116	0.13393
484.045	0.13353
485.974	0.133401
487.902	0.133022
489.83	0.132652
491.759	0.132329
493.687	0.131818
495.616	0.131363
497.544	0.13052
499.473	0.129294
501.401	0.128395
503.33	0.126959
505.258	0.12529
507.187	0.123884
509.115	0.122172
511.043	0.120483
512.972	0.118985
514.9	0.117399
516.829	0.115741
518.757	0.114622
520.686	0.113019
522.614	0.111074
524.543	0.109278
526.471	0.107179
528.4	0.105186
530.328	0.103295
532.257	0.101588
534.185	0.100013
536.114	0.0984682
538.042	0.0968461
539.971	0.0957216
541.899	0.0950303
543.827	0.0942644
545.756	0.0938208
547.684	0.0937819
549.613	0.0935881
551.541	0.0932463
553.47	0.0935631
555.398	0.0943645
557.327	0.0950586
559.255	0.0958755
561.184	0.0967138
563.112	0.0970517
565.041	0.0970807
566.969	0.0969266
568.898	0.096042
570.826	0.0951999
572.755	0.0941698
574.683	0.0928756
576.611	0.0921034
578.54	0.0907187
580.468	0.0888104
582.397	0.0875327
584.325	0.0862739
586.254	0.0852386
588.182	0.0840635
590.111	0.0834199
592.039	0.0832312
593.968	0.0832413
595.896	0.0833142
597.824	0.0839466
599.753	0.0840151
601.682	0.0839796
603.61	0.0839962
605.538	0.0833817
607.467	0.0818628
609.395	0.0798186
611.324	0.0776337
613.252	0.075925
615.181	0.073997
617.109	0.0716808
619.038	0.0698325
620.966	0.0679171
622.894	0.0666417
624.823	0.0670685
626.751	0.067648
628.68	0.068438
630.608	0.0688753
632.537	0.0689087
634.465	0.0691757
636.394	0.0703209
638.322	0.0721082
640.251	0.0740453
642.179	0.0759089
644.108	0.0771655
646.036	0.0778564
647.965	0.0779967
649.893	0.0772946
651.822	0.0762478
653.75	0.0754564
655.678	0.0750602
657.607	0.0750721
659.535	0.0756323
661.464	0.0764703
663.392	0.0776421
665.321	0.0790705
667.249	0.0810686
669.178	0.0825018
671.106	0.0832034
673.035	0.0839161
674.963	0.0849641
676.892	0.0863079
678.82	0.0877744
680.749	0.0888518
682.677	0.0895701
684.606	0.0905813
686.534	0.092302
688.462	0.0944383
690.391	0.0970559
692.319	0.100174
694.248	0.103443
696.176	0.107099
698.105	0.110756
700.033	0.113289
