Measurement: Infrared, Infrared Data Processed
Mineral: Fluorapatite
Rruff sample: R050401
Ideal chemistry: Ca_5_(PO_4_)_3_F
Locality: Urbano mine, Golconda District, Minas Gerais, Brazil
Source: Bob Downs
Description: Pale purple hexagonal prism associated with albite R050402
Measured chemistry: (Ca_0.99_Mn_0.01_)_5_(P_1.00_O_4_)_3_F_1.00_
x	intensity
399.193	0.01044
408.835	0.0163848
418.477	0.0133942
428.12	0.0137433
437.762	0.0148049
447.404	0.0142107
457.047	0.0180119
466.689	0.0242359
476.331	0.0264796
485.974	0.0183425
495.616	0.0192081
505.258	0.0215798
514.901	0.0272801
524.543	0.0399845
534.185	0.0655078
543.828	0.117631
553.47	0.229189
563.112	0.334598
572.755	0.308971
582.397	0.152007
592.039	0.157938
601.682	0.228639
611.324	0.0826903
620.966	0.0239152
630.609	0.0147897
640.251	0.0127624
649.893	0.0129208
659.536	0.012974
669.178	0.0135365
678.82	0.014218
688.463	0.0150239
698.105	0.0158658
707.747	0.0162721
717.39	0.0164248
727.032	0.0170576
736.674	0.0169324
746.317	0.0179573
755.959	0.0169589
765.601	0.0172418
775.244	0.0168383
784.886	0.0176344
794.528	0.0175228
804.171	0.0183397
813.813	0.0190531
823.455	0.0199289
833.098	0.0211601
842.74	0.0225344
852.382	0.024727
862.025	0.0278171
871.667	0.0311045
881.309	0.0347549
890.952	0.0391446
900.594	0.0451931
910.236	0.0533534
919.879	0.0654572
929.521	0.0839582
939.163	0.112355
948.806	0.159657
958.448	0.230219
968.09	0.224994
977.733	0.286652
987.375	0.391611
997.017	0.491597
1006.66	0.584414
1016.3	0.661467
1025.94	0.664233
1035.59	0.59316
1045.23	0.451101
1054.87	0.337871
1064.51	0.251076
1074.16	0.18095
1083.8	0.132258
1093.44	0.209824
1103.08	0.12009
1112.72	0.0696906
1122.37	0.0332256
1132.01	0.0181486
1141.65	0.0118967
1151.3	0.00924349
1160.94	0.00676451
1170.58	0.00557876
1180.22	0.00410326
1189.86	0.00325515
1199.51	0.00213703
1209.15	0.00189395
1218.79	0.00118023
1228.43	0.00104089
1238.08	5.88294e-05
1247.72	0.000310898
1257.36	0.000421818
1267	0.000480387
1276.64	0.000675949
1286.29	0.000314496
1295.93	-0.000110086
1305.57	0.000154412
1315.21	0.000568458
1324.86	0.000173071
1334.5	-6.38905e-05
1344.14	-5.60247e-05
1353.78	0.000245729
1363.43	0.000150635
1373.07	-0.000289826
1382.71	7.30332e-05
1392.35	0.000869148
1401.99	0.00215117
1411.64	0.00321293
1421.28	0.00454784
1430.92	0.00465187
1440.57	0.00431269
1450.21	0.0043612
1459.85	0.00425004
1469.49	0.00419169
1479.13	0.0037061
1488.78	0.00341027
1498.42	0.00362784
1508.06	0.00362074
1517.7	0.00272165
1527.35	0.00295199
1536.99	0.00316243
1546.63	0.00331544
1556.27	0.00372104
1565.91	0.00383644
1575.56	0.003453
1585.2	0.00349699
1594.84	0.00326862
1604.48	0.00313184
1614.13	0.00311306
1623.77	0.00301348
1633.41	0.00295452
1643.05	0.00306813
1652.7	0.0027675
1662.34	0.00371892
1671.98	0.00312487
1681.62	0.00280643
1691.27	0.00281718
1700.91	0.00253985
1710.55	0.00203831
1720.19	0.00248389
1729.84	0.00113928
1739.48	0.000462208
1749.12	-0.000152291
1758.76	0.00110388
1768.4	0.00278488
1778.05	0.00212529
1787.69	0.00330216
1797.33	0.00238964
1806.97	0.00302002
1816.62	0.00213458
1826.26	0.00278568
1835.9	0.00192695
1845.54	0.00264464
1855.18	0.00261844
1864.83	0.00309159
1874.47	0.00343982
1884.11	0.00164282
1893.75	0.00150362
1903.4	0.00183654
1913.04	0.000768412
1922.68	0.000107862
1932.32	0.000142085
1941.97	-0.00136282
1951.61	-0.00325942
1961.25	-0.00461558
1970.89	-0.00244357
1980.54	-0.0012002
1990.18	-0.00601475
1999.82	-0.00172898
2009.46	-0.00697722
2019.11	-0.00665775
2028.75	-0.0069092
2038.39	-0.010217
2048.03	-0.00493744
2057.67	-0.00414554
2067.32	-0.00105994
2076.96	-2.90407e-05
2086.6	-0.00122823
2096.24	-0.00203989
2105.89	0.000380221
2115.53	0.000888616
2125.17	-0.00104522
2134.81	-0.0051323
2144.45	-0.00478521
2154.1	-0.00827394
2163.74	-0.000343707
2173.38	-0.00128017
2183.02	-0.0052572
2192.67	-0.00013999
2202.31	-0.000918561
2211.95	0.00114336
2221.59	0.00148675
2231.24	0.00167981
2240.88	0.00636351
2250.52	0.00326717
2260.16	0.00388329
2269.8	0.00655354
2279.45	0.0076256
2289.09	0.00746695
2298.73	0.00791312
2308.38	0.0075875
2318.02	0.0071446
2327.66	0.00592478
2337.3	0.0057771
2346.94	0.00585224
2356.59	0.00617129
2366.23	0.00507356
2375.87	0.00593846
2385.51	0.00600891
2395.16	0.00574564
2404.8	0.00519341
2414.44	0.00801803
2424.08	0.00692621
2433.72	0.00650433
2443.37	0.00707984
2453.01	0.00693441
2462.65	0.00596712
2472.29	0.00629087
2481.94	0.00829977
2491.58	0.00638453
2501.22	0.00641232
2510.86	0.00499631
2520.51	0.00680407
2530.15	0.0063315
2539.79	0.00808829
2549.43	0.00613849
2559.07	0.00775857
2568.72	0.00644385
2578.36	0.00721507
2588	0.00744955
2597.64	0.00600828
2607.29	0.00725855
2616.93	0.00859087
2626.57	0.00735848
2636.21	0.00693037
2645.86	0.00797091
2655.5	0.00722116
2665.14	0.00739695
2674.78	0.00681048
2684.43	0.00690374
2694.07	0.0072779
2703.71	0.00712187
2713.35	0.00710503
2722.99	0.00767945
2732.64	0.00723377
2742.28	0.00639451
2751.92	0.00654521
2761.56	0.00736996
2771.21	0.00747461
2780.85	0.00838688
2790.49	0.0075419
2800.13	0.00703407
2809.78	0.00772724
2819.42	0.00852881
2829.06	0.00809593
2838.7	0.00765721
2848.34	0.00841681
2857.99	0.00884738
2867.63	0.00754846
2877.27	0.00651686
2886.91	0.00624386
2896.56	0.00700714
2906.2	0.00644945
2915.84	0.00814535
2925.48	0.00860503
2935.13	0.00735583
2944.77	0.0084838
2954.41	0.00772304
2964.05	0.0074935
2973.7	0.00615646
2983.34	0.00586283
2992.98	0.00610432
3002.62	0.00698367
3012.26	0.00923781
3021.91	0.0095093
3031.55	0.00885409
3041.19	0.00886296
3050.83	0.00875312
3060.48	0.00870572
3070.12	0.0084212
3079.76	0.00859112
3089.4	0.0104962
3099.05	0.0114106
3108.69	0.00904032
3118.33	0.0096087
3127.97	0.0105016
3137.61	0.0115154
3147.26	0.00987724
3156.9	0.0105176
3166.54	0.0121702
3176.18	0.0140495
3185.83	0.0114503
3195.47	0.00956633
3205.11	0.00971079
3214.75	0.0105027
3224.4	0.00897267
3234.04	0.00823692
3243.68	0.00979378
3253.32	0.00927071
3262.97	0.00764846
3272.61	0.0104857
3282.25	0.0104399
3291.89	0.00986795
3301.53	0.0099244
3311.18	0.00802898
3320.82	0.0103352
3330.46	0.0127841
3340.1	0.00806207
3349.75	0.00812786
3359.39	0.010214
3369.03	0.0109633
3378.67	0.010506
3388.32	0.00600683
3397.96	0.00987633
3407.6	0.00864343
3417.24	0.0114963
3426.89	0.00807892
3436.53	0.00935328
3446.17	0.0081764
3455.81	0.00866989
3465.45	0.00881951
3475.1	0.00883409
3484.74	0.00822379
3494.38	0.00920237
3504.02	0.010713
3513.67	0.0087648
3523.31	0.00815343
3532.95	0.00599033
3542.59	0.00779794
3552.24	0.0100099
3561.88	0.00767706
3571.52	0.00788933
3581.16	0.0069474
3590.8	0.00983257
3600.45	0.00538372
3610.09	0.00543559
3619.73	0.00465658
3629.37	0.00363399
3639.02	0.00551472
3648.66	0.00738354
3658.3	0.00886667
3667.94	0.0115205
3677.59	0.00732957
3687.23	0.00887953
3696.87	0.00250091
3706.51	0.00412241
3716.16	0.00858844
3725.8	0.00607752
3735.44	0.00926175
3745.08	0.0120743
3754.72	0.00869021
3764.37	0.00280481
3774.01	0.00966641
3783.65	0.00523415
3793.29	0.00378123
3802.94	0.00518954
3812.58	0.00458985
3822.22	0.011232
3831.86	0.00831371
3841.51	0.00505857
3851.15	0.00464869
3860.79	0.00970867
3870.43	0.00674049
3880.07	0.00515591
3889.72	0.00489377
3899.36	0.00378829
3909	0.00828896
3918.64	0.00843884
3928.29	0.00444059
3937.93	0.00192357
3947.57	0.00720277
3957.21	0.00446027
3966.86	0.00372253
3976.5	0.00722261
3986.14	0.00639189
3995.78	0.00532839
