Measurement: Infrared, Infrared Data Processed
Mineral: Fluorapatite
Rruff sample: R060070
Ideal chemistry: Ca_5_(PO_4_)_3_F
Locality: Panasqueira, Portugal
Source: Dave Bunk
Description: Green hexagonal tablet
Measured chemistry: (Ca_0.99_Mn_0.01_)_5_(P_1.00_O_4_)_3_F_1.00_
x	intensity
399.193	0.0111665
408.835	0.00857703
418.477	0.00955364
428.12	0.00519025
437.762	0.0162558
447.404	0.0121818
457.047	0.0138917
466.689	0.0230508
476.331	0.0231747
485.974	0.015261
495.616	0.0165497
505.258	0.0204546
514.901	0.0247723
524.543	0.0357652
534.185	0.0604761
543.828	0.10612
553.47	0.18719
563.112	0.268187
572.755	0.264951
582.397	0.136397
592.039	0.146111
601.682	0.196387
611.324	0.0744029
620.966	0.0206915
630.609	0.0124424
640.251	0.0106615
649.893	0.00999064
659.536	0.00993733
669.178	0.0104133
678.82	0.00990786
688.463	0.00970691
698.105	0.0105854
707.747	0.00974199
717.39	0.010882
727.032	0.0111709
736.674	0.0112761
746.317	0.0122104
755.959	0.0123913
765.601	0.0131039
775.244	0.0141196
784.886	0.0150176
794.528	0.0164188
804.171	0.0174098
813.813	0.0192879
823.455	0.0215361
833.098	0.0236459
842.74	0.025983
852.382	0.0289475
862.025	0.0335328
871.667	0.0372678
881.309	0.0423629
890.952	0.0492575
900.594	0.0577705
910.236	0.0679366
919.879	0.0827832
929.521	0.101724
939.163	0.128698
948.806	0.168329
958.448	0.211242
968.09	0.204325
977.733	0.250331
987.375	0.314069
997.017	0.375394
1006.66	0.436473
1016.3	0.487956
1025.94	0.501784
1035.59	0.46962
1045.23	0.377002
1054.87	0.289959
1064.51	0.217849
1074.16	0.159141
1083.8	0.114181
1093.44	0.183353
1103.08	0.103775
1112.72	0.0598845
1122.37	0.0290334
1132.01	0.0148793
1141.65	0.00972439
1151.3	0.00715333
1160.94	0.00583142
1170.58	0.00510837
1180.22	0.00357499
1189.86	0.0033943
1199.51	0.00308934
1209.15	0.00273627
1218.79	0.00226344
1228.43	0.00206846
1238.08	0.00134994
1247.72	0.00175371
1257.36	0.00130744
1267	0.00158816
1276.64	0.00123248
1286.29	0.00102386
1295.93	0.00112184
1305.57	0.000473969
1315.21	0.000486847
1324.86	0.000877221
1334.5	0.00106117
1344.14	0.00127323
1353.78	0.0015298
1363.43	0.00107132
1373.07	0.00143884
1382.71	0.00145909
1392.35	0.00183806
1401.99	0.0017659
1411.64	0.00252858
1421.28	0.00242192
1430.92	0.00320921
1440.57	0.00286372
1450.21	0.0037313
1459.85	0.00327288
1469.49	0.00309714
1479.13	0.0030138
1488.78	0.00309689
1498.42	0.00318809
1508.06	0.00313826
1517.7	0.00347295
1527.35	0.00268208
1536.99	0.00326765
1546.63	0.00405435
1556.27	0.00418806
1565.91	0.00375265
1575.56	0.00367414
1585.2	0.00358463
1594.84	0.00344067
1604.48	0.00400777
1614.13	0.00395617
1623.77	0.00380047
1633.41	0.00275428
1643.05	0.0036685
1652.7	0.00406172
1662.34	0.00325562
1671.98	0.00385304
1681.62	0.0037139
1691.27	0.00409463
1700.91	0.00330794
1710.55	0.00446945
1720.19	0.00420748
1729.84	0.00452763
1739.48	0.00401328
1749.12	0.00420597
1758.76	0.00429655
1768.4	0.00518685
1778.05	0.00482257
1787.69	0.00545592
1797.33	0.00412389
1806.97	0.00476952
1816.62	0.00377933
1826.26	0.00366929
1835.9	0.00382367
1845.54	0.00465431
1855.18	0.00409685
1864.83	0.00312514
1874.47	0.00506592
1884.11	0.00420258
1893.75	0.00351497
1903.4	0.00373545
1913.04	0.00448764
1922.68	0.00482808
1932.32	0.0044185
1941.97	-0.00124288
1951.61	0.00234468
1961.25	-0.00373308
1970.89	-0.00223973
1980.54	0.00178365
1990.18	0.000351678
1999.82	0.0018635
2009.46	-0.00311982
2019.11	-0.000155732
2028.75	0.000994821
2038.39	-0.000778665
2048.03	0.00163876
2057.67	0.000356443
2067.32	0.00291104
2076.96	0.00634568
2086.6	0.00414006
2096.24	0.00426463
2105.89	0.00294988
2115.53	0.00492367
2125.17	0.00609475
2134.81	0.00112268
2144.45	0.0037773
2154.1	0.00219819
2163.74	0.00730687
2173.38	0.00433033
2183.02	0.00499736
2192.67	0.00310898
2202.31	0.00647708
2211.95	0.0024869
2221.59	0.00384489
2231.24	0.00787483
2240.88	0.0078269
2250.52	0.0100381
2260.16	0.00843585
2269.8	0.00958498
2279.45	0.012511
2289.09	0.0122998
2298.73	0.0105919
2308.38	0.0123086
2318.02	0.0107097
2327.66	0.010812
2337.3	0.0113069
2346.94	0.010061
2356.59	0.0113441
2366.23	0.0106468
2375.87	0.0111446
2385.51	0.0103987
2395.16	0.0102602
2404.8	0.0107118
2414.44	0.0112203
2424.08	0.0114857
2433.72	0.011715
2443.37	0.0113471
2453.01	0.00959521
2462.65	0.0109263
2472.29	0.00980109
2481.94	0.0102008
2491.58	0.0128644
2501.22	0.0119769
2510.86	0.012512
2520.51	0.0121392
2530.15	0.0105521
2539.79	0.0127721
2549.43	0.0120266
2559.07	0.01214
2568.72	0.0128272
2578.36	0.0110599
2588	0.012655
2597.64	0.0137865
2607.29	0.0136922
2616.93	0.0139314
2626.57	0.0146269
2636.21	0.0140791
2645.86	0.0142877
2655.5	0.0132662
2665.14	0.0122816
2674.78	0.0134245
2684.43	0.0135119
2694.07	0.0132554
2703.71	0.0135435
2713.35	0.014284
2722.99	0.0128145
2732.64	0.0138379
2742.28	0.0142992
2751.92	0.013088
2761.56	0.0137933
2771.21	0.0143608
2780.85	0.0145362
2790.49	0.0147605
2800.13	0.0153731
2809.78	0.0156939
2819.42	0.0143271
2829.06	0.0153928
2838.7	0.0163384
2848.34	0.0133184
2857.99	0.0163255
2867.63	0.0178197
2877.27	0.015802
2886.91	0.0151662
2896.56	0.016083
2906.2	0.0183234
2915.84	0.0165612
2925.48	0.0182854
2935.13	0.0189458
2944.77	0.0181411
2954.41	0.0188254
2964.05	0.0192962
2973.7	0.0165602
2983.34	0.0178884
2992.98	0.0179945
3002.62	0.0178622
3012.26	0.0167684
3021.91	0.0198234
3031.55	0.0185112
3041.19	0.0172197
3050.83	0.0193893
3060.48	0.0187395
3070.12	0.0181637
3079.76	0.0208195
3089.4	0.0186543
3099.05	0.0185147
3108.69	0.0177561
3118.33	0.0186014
3127.97	0.0196662
3137.61	0.0207621
3147.26	0.0170205
3156.9	0.0191594
3166.54	0.0205485
3176.18	0.0198389
3185.83	0.0222431
3195.47	0.0223564
3205.11	0.0203771
3214.75	0.0222414
3224.4	0.0201148
3234.04	0.0200951
3243.68	0.017926
3253.32	0.0191974
3262.97	0.0201367
3272.61	0.0197048
3282.25	0.0177325
3291.89	0.020076
3301.53	0.019776
3311.18	0.0192987
3320.82	0.0224818
3330.46	0.0174314
3340.1	0.0237398
3349.75	0.0194003
3359.39	0.0210975
3369.03	0.0195187
3378.67	0.0206502
3388.32	0.0210117
3397.96	0.0154206
3407.6	0.022185
3417.24	0.0211252
3426.89	0.0190866
3436.53	0.0198156
3446.17	0.0201247
3455.81	0.0185188
3465.45	0.0183721
3475.1	0.0188063
3484.74	0.0226063
3494.38	0.0196947
3504.02	0.0159531
3513.67	0.0209411
3523.31	0.0183515
3532.95	0.0216141
3542.59	0.0218316
3552.24	0.0178901
3561.88	0.0172306
3571.52	0.0175824
3581.16	0.014935
3590.8	0.0179709
3600.45	0.0169935
3610.09	0.0161838
3619.73	0.014254
3629.37	0.0226001
3639.02	0.0205437
3648.66	0.015748
3658.3	0.0218304
3667.94	0.0202285
3677.59	0.00996622
3687.23	0.0168054
3696.87	0.0168979
3706.51	0.0152775
3716.16	0.0186025
3725.8	0.0149731
3735.44	0.0188821
3745.08	0.01643
3754.72	0.0131558
3764.37	0.0202857
3774.01	0.0118693
3783.65	0.0143972
3793.29	0.0178188
3802.94	0.0149899
3812.58	0.0119635
3822.22	0.0165709
3831.86	0.0137856
3841.51	0.0167565
3851.15	0.0161948
3860.79	0.015051
3870.43	0.017435
3880.07	0.0150982
3889.72	0.0138168
3899.36	0.0178529
3909	0.0157629
3918.64	0.0142718
3928.29	0.016494
3937.93	0.0158022
3947.57	0.0183005
3957.21	0.0173587
3966.86	0.0192357
3976.5	0.0138052
3986.14	0.0135657
3995.78	0.018908
