Measurement: Infrared, Infrared Data Processed
Mineral: Fluorapatite
Rruff sample: R050192
Ideal chemistry: Ca_5_(PO_4_)_3_F
Locality: Fulford, Eagle County, Colorado, USA
Source: Dave Bunk Minerals
Description: Pale green hexagonal prism
Measured chemistry: Ca_5.00_(P_1.00_O_4_)_3_(F_0.86_Cl_0.13_)
x	intensity
374.123	0.0480974
383.765	0.0197607
393.407	0.0204134
403.05	0.0181672
412.692	0.0171276
422.334	0.016692
431.976	0.0150691
441.619	0.0149316
451.261	0.0141716
460.904	0.0209413
470.546	0.0321004
480.188	0.0253715
489.83	0.021504
499.473	0.0231682
509.115	0.0297606
518.758	0.0424271
528.4	0.0532634
538.042	0.0866564
547.684	0.168248
557.327	0.290711
566.969	0.318256
576.611	0.212172
586.254	0.123117
595.896	0.207118
605.538	0.15432
615.181	0.0560725
624.823	0.0240392
634.466	0.0154364
644.108	0.0145223
653.75	0.0156317
663.393	0.0156493
673.035	0.0160477
682.677	0.0170874
692.319	0.0175195
701.962	0.0178641
711.604	0.0192643
721.246	0.0221456
730.889	0.0261124
740.531	0.030226
750.173	0.0295855
759.816	0.0251073
769.458	0.0214554
779.101	0.0199328
788.743	0.0204151
798.385	0.0211302
808.028	0.0226056
817.67	0.0238264
827.312	0.0259821
836.955	0.0285836
846.597	0.0323799
856.239	0.0372613
865.881	0.0438214
875.524	0.0510859
885.166	0.0563821
894.808	0.0624725
904.451	0.0694996
914.093	0.083048
923.736	0.105212
933.378	0.135425
943.02	0.165855
952.663	0.221858
962.305	0.284571
971.947	0.251243
981.59	0.330902
991.232	0.421781
1000.87	0.505979
1010.52	0.573239
1020.16	0.614533
1029.8	0.574916
1039.44	0.464621
1049.09	0.365746
1058.73	0.280143
1068.37	0.210197
1078.01	0.155713
1087.65	0.199796
1097.3	0.141651
1106.94	0.0870646
1116.58	0.0516972
1126.22	0.0278146
1135.87	0.0170262
1145.51	0.013383
1155.15	0.0113945
1164.79	0.00984276
1174.44	0.00870319
1184.08	0.00773353
1193.72	0.00681897
1203.36	0.00626011
1213.01	0.00588613
1222.65	0.00526189
1232.29	0.00469984
1241.93	0.00446565
1251.58	0.00422482
1261.22	0.00409133
1270.86	0.0041067
1280.5	0.0041438
1290.14	0.00389348
1299.79	0.00370966
1309.43	0.00388699
1319.07	0.00380672
1328.71	0.00392882
1338.36	0.00402342
1348	0.00380013
1357.64	0.00413951
1367.28	0.00411297
1376.92	0.00420813
1386.57	0.00481682
1396.21	0.00521351
1405.85	0.0058345
1415.49	0.00630802
1425.14	0.00692945
1434.78	0.00698776
1444.42	0.00661813
1454.06	0.00704093
1463.71	0.00698311
1473.35	0.00691777
1482.99	0.0064677
1492.63	0.00659754
1502.28	0.00656317
1511.92	0.00659335
1521.56	0.00700963
1531.2	0.00700183
1540.85	0.00803984
1550.49	0.00750838
1560.13	0.00864474
1569.77	0.00791201
1579.41	0.00805763
1589.06	0.00769434
1598.7	0.0079603
1608.34	0.00786889
1617.98	0.00822864
1627.63	0.00795957
1637.27	0.00798143
1646.91	0.0080416
1656.55	0.00780932
1666.19	0.00754848
1675.84	0.0077273
1685.48	0.00804632
1695.12	0.00834338
1704.77	0.00779125
1714.41	0.00802007
1724.05	0.00722449
1733.69	0.00782907
1743.33	0.00689482
1752.98	0.00674593
1762.62	0.00712084
1772.26	0.00757012
1781.9	0.00736905
1791.55	0.00728778
1801.19	0.00744391
1810.83	0.007191
1820.47	0.00765197
1830.12	0.00754715
1839.76	0.00739438
1849.4	0.00710135
1859.04	0.0074036
1868.68	0.00733993
1878.33	0.00777057
1887.97	0.00762444
1897.61	0.00687652
1907.25	0.00698817
1916.9	0.00673187
1926.54	0.00649881
1936.18	0.00850421
1945.82	0.00795206
1955.46	0.00747152
1965.11	0.00775659
1974.75	0.00752735
1984.39	0.0109051
1994.04	0.0108109
2003.68	0.00643667
2013.32	0.00986913
2022.96	0.00637186
2032.6	0.00957695
2042.25	0.00628844
2051.89	0.0094455
2061.53	0.00894177
2071.17	0.00899173
2080.82	0.00970889
2090.46	0.00855497
2100.1	0.00973211
2109.74	0.00847213
2119.39	0.00803961
2129.03	0.00787674
2138.67	0.00884912
2148.31	0.0113272
2157.95	0.0121528
2167.6	0.0149293
2177.24	0.00873836
2186.88	0.0130156
2196.52	0.0136572
2206.17	0.0115468
2215.81	0.0117988
2225.45	0.0126862
2235.09	0.01348
2244.74	0.0129974
2254.38	0.0125152
2264.02	0.0128152
2273.66	0.0136969
2283.3	0.0134801
2292.95	0.0123949
2302.59	0.0123306
2312.23	0.011773
2321.87	0.0123435
2331.52	0.0111172
2341.16	0.0113846
2350.8	0.010758
2360.44	0.0104548
2370.09	0.0108604
2379.73	0.0109097
2389.37	0.0116379
2399.01	0.0113685
2408.66	0.0114977
2418.3	0.0121365
2427.94	0.0121588
2437.58	0.0114577
2447.22	0.0125419
2456.87	0.0127139
2466.51	0.0123379
2476.15	0.0122526
2485.79	0.0125672
2495.44	0.0122777
2505.08	0.0121559
2514.72	0.0126263
2524.36	0.0123653
2534.01	0.0120016
2543.65	0.0122894
2553.29	0.0121164
2562.93	0.0129492
2572.57	0.0129021
2582.22	0.0123193
2591.86	0.0127228
2601.5	0.0128029
2611.14	0.0131264
2620.79	0.0135841
2630.43	0.013768
2640.07	0.013827
2649.71	0.0132414
2659.36	0.013117
2669	0.012849
2678.64	0.013249
2688.28	0.0129301
2697.93	0.0130447
2707.57	0.0136328
2717.21	0.0132601
2726.85	0.0130546
2736.49	0.0130256
2746.14	0.0137185
2755.78	0.0138498
2765.42	0.0140563
2775.06	0.0140842
2784.71	0.014061
2794.35	0.0137473
2803.99	0.0144204
2813.63	0.014353
2823.28	0.0145272
2832.92	0.0149303
2842.56	0.0151915
2852.2	0.0160967
2861.84	0.0163521
2871.49	0.0152003
2881.13	0.0157918
2890.77	0.0158689
2900.41	0.016433
2910.06	0.01633
2919.7	0.0167473
2929.34	0.0167966
2938.98	0.0164331
2948.62	0.0162454
2958.27	0.0162498
2967.91	0.0157285
2977.55	0.0149585
2987.2	0.0151302
2996.84	0.0151234
3006.48	0.0148147
3016.12	0.0141844
3025.76	0.015149
3035.41	0.0144527
3045.05	0.015259
3054.69	0.0152864
3064.33	0.0157845
3073.98	0.014352
3083.62	0.0156355
3093.26	0.0155298
3102.9	0.0143528
3112.55	0.0153502
3122.19	0.0154015
3131.83	0.0150952
3141.47	0.0163176
3151.11	0.0161932
3160.76	0.0171739
3170.4	0.0156563
3180.04	0.017107
3189.68	0.016639
3199.33	0.0164277
3208.97	0.0157577
3218.61	0.0167498
3228.25	0.0168791
3237.9	0.0164596
3247.54	0.0166555
3257.18	0.0166592
3266.82	0.0169969
3276.47	0.0166902
3286.11	0.017011
3295.75	0.0171894
3305.39	0.0162883
3315.03	0.0172018
3324.68	0.0164149
3334.32	0.0163147
3343.96	0.0183663
3353.6	0.0162605
3363.25	0.0173612
3372.89	0.0171023
3382.53	0.0171921
3392.17	0.0170306
3401.82	0.0170245
3411.46	0.0176048
3421.1	0.0171067
3430.74	0.0168177
3440.39	0.0165552
3450.03	0.0174293
3459.67	0.017103
3469.31	0.0160655
3478.95	0.017399
3488.6	0.0180262
3498.24	0.016249
3507.88	0.0166058
3517.52	0.016728
3527.17	0.0190092
3536.81	0.0196801
3546.45	0.018049
3556.09	0.0162032
3565.74	0.0147196
3575.38	0.0142058
3585.02	0.0140155
3594.66	0.0117334
3604.3	0.0133699
3613.95	0.014078
3623.59	0.0126259
3633.23	0.0111327
3642.87	0.0118671
3652.52	0.0127562
3662.16	0.0134261
3671.8	0.0121811
3681.44	0.0126848
3691.09	0.012036
3700.73	0.0116405
3710.37	0.0131174
3720.01	0.0123455
3729.66	0.0117986
3739.3	0.0121644
3748.94	0.0151396
3758.58	0.0131
3768.22	0.0124524
3777.87	0.0134732
3787.51	0.011703
3797.15	0.0117481
3806.79	0.0121057
3816.44	0.0140907
3826.08	0.0130659
3835.72	0.0132207
3845.36	0.0114683
3855.01	0.0133954
3864.65	0.011661
3874.29	0.0114612
3883.93	0.0116378
3893.57	0.0110106
3903.22	0.0111667
3912.86	0.0119033
3922.5	0.0112347
3932.14	0.0127787
3941.79	0.0108616
3951.43	0.0107674
3961.07	0.0119637
3970.71	0.0125752
3980.36	0.0123369
3990	0.0115267
3999.64	0.0109253
