Measurement: Infrared, Infrared Data Processed
Mineral: Fluorapatite
Rruff sample: R050529
Ideal chemistry: Ca_5_(PO_4_)_3_F
Locality: Limburg de an Lahn, Germany
Source: University of Arizona Mineral Museum
Description: Botryoidal aggregate
Measured chemistry: (Ca_4.68_[box]_0.32_)_Σ=5_((PO_4_)_2.36_(CO_3_)_0.64_)_Σ=3_F_1.00_
x	intensity
399.193	0.0737049
408.835	0.0536386
418.477	0.0393806
428.12	0.0372181
437.762	0.0340212
447.404	0.0349132
457.047	0.0395555
466.689	0.0453041
476.331	0.0464016
485.974	0.0336734
495.616	0.0355321
505.258	0.0395676
514.901	0.0458518
524.543	0.0590296
534.185	0.0833253
543.828	0.132499
553.47	0.235177
563.112	0.358119
572.755	0.339737
582.397	0.225716
592.039	0.192113
601.682	0.27433
611.324	0.127005
620.966	0.0424415
630.609	0.0240431
640.251	0.0195282
649.893	0.0194552
659.536	0.0184772
669.178	0.0190647
678.82	0.0180923
688.463	0.0204689
698.105	0.0188656
707.747	0.0188431
717.39	0.0192702
727.032	0.0185712
736.674	0.0183847
746.317	0.0187859
755.959	0.0187709
765.601	0.0195996
775.244	0.0193103
784.886	0.0201519
794.528	0.020977
804.171	0.0216465
813.813	0.0227716
823.455	0.0239299
833.098	0.0256733
842.74	0.0295938
852.382	0.0340379
862.025	0.0670561
871.667	0.0492833
881.309	0.0389302
890.952	0.0338982
900.594	0.0385554
910.236	0.0433285
919.879	0.0490779
929.521	0.0600665
939.163	0.0757403
948.806	0.0995145
958.448	0.138006
968.09	0.150927
977.733	0.167054
987.375	0.229769
997.017	0.297598
1006.66	0.36016
1016.3	0.409371
1025.94	0.429769
1035.59	0.393697
1045.23	0.321949
1054.87	0.253368
1064.51	0.196934
1074.16	0.155469
1083.8	0.125704
1093.44	0.114477
1103.08	0.0885042
1112.72	0.0585396
1122.37	0.0298802
1132.01	0.0130121
1141.65	0.00644773
1151.3	0.0028204
1160.94	0.000628112
1170.58	-0.000389978
1180.22	-0.000908942
1189.86	-0.00104984
1199.51	-0.00141127
1209.15	-0.00151536
1218.79	-0.00152024
1228.43	-0.00171266
1238.08	-0.00178711
1247.72	-0.00197196
1257.36	-0.00154491
1267	-0.00146176
1276.64	-0.000795052
1286.29	-0.00084704
1295.93	-2.36571e-05
1305.57	0.00050247
1315.21	0.00104671
1324.86	0.00160303
1334.5	0.00166117
1344.14	0.00219147
1353.78	0.00267058
1363.43	0.00424216
1373.07	0.00633532
1382.71	0.0110642
1392.35	0.0205444
1401.99	0.0367059
1411.64	0.0553643
1421.28	0.0690479
1430.92	0.0639406
1440.57	0.0450195
1450.21	0.0502315
1459.85	0.0442321
1469.49	0.0296021
1479.13	0.0225226
1488.78	0.0180945
1498.42	0.0160056
1508.06	0.0121462
1517.7	0.00775803
1527.35	0.00531036
1536.99	0.00359564
1546.63	0.00291379
1556.27	0.0024458
1565.91	0.00202217
1575.56	0.00205153
1585.2	0.00156585
1594.84	0.00173345
1604.48	0.00198688
1614.13	0.0020188
1623.77	0.00176579
1633.41	0.0018882
1643.05	0.00212567
1652.7	0.00167896
1662.34	0.00130831
1671.98	0.00122942
1681.62	0.00111527
1691.27	0.000230774
1700.91	-0.00104459
1710.55	-0.00323137
1720.19	-0.00328721
1729.84	-0.00416105
1739.48	-0.00643167
1749.12	-0.00412161
1758.76	-0.000136027
1768.4	0.00132114
1778.05	0.00165322
1787.69	0.00154992
1797.33	0.00140992
1806.97	0.00173275
1816.62	0.00153569
1826.26	0.00182903
1835.9	0.00163938
1845.54	0.00114111
1855.18	0.00165704
1864.83	0.00130645
1874.47	0.00148346
1884.11	0.00120948
1893.75	0.0012253
1903.4	0.00148558
1913.04	0.000645765
1922.68	4.14527e-05
1932.32	0.000233724
1941.97	0.000170608
1951.61	-0.000216775
1961.25	-0.000728867
1970.89	-0.00146094
1980.54	0.00167524
1990.18	-0.000474816
1999.82	-0.00250778
2009.46	-0.00196556
2019.11	-0.00240786
2028.75	-0.00239019
2038.39	-4.62195e-05
2048.03	-1.48438e-05
2057.67	-0.000250752
2067.32	-0.000126984
2076.96	0.00040439
2086.6	-0.000302309
2096.24	2.18685e-06
2105.89	0.000539824
2115.53	-0.00029817
2125.17	-0.000250719
2134.81	-0.00138059
2144.45	0.000121586
2154.1	0.000747882
2163.74	0.000268502
2173.38	0.000323973
2183.02	0.00148881
2192.67	0.000418784
2202.31	0.00111387
2211.95	0.00111337
2221.59	0.000686251
2231.24	0.00151385
2240.88	0.00308915
2250.52	0.00354232
2260.16	0.00224529
2269.8	0.00334521
2279.45	0.00359377
2289.09	0.00379517
2298.73	0.00333245
2308.38	0.00346944
2318.02	0.00409256
2327.66	0.00349589
2337.3	0.00356604
2346.94	0.00349465
2356.59	0.00342168
2366.23	0.0031074
2375.87	0.00289908
2385.51	0.00322171
2395.16	0.00293066
2404.8	0.00290151
2414.44	0.00260928
2424.08	0.00282707
2433.72	0.0031873
2443.37	0.00296196
2453.01	0.0036202
2462.65	0.00308097
2472.29	0.00249672
2481.94	0.00344208
2491.58	0.00378983
2501.22	0.00279205
2510.86	0.00246167
2520.51	0.00308284
2530.15	0.00335536
2539.79	0.00336267
2549.43	0.00255164
2559.07	0.00286302
2568.72	0.00290995
2578.36	0.00284007
2588	0.00311544
2597.64	0.00285625
2607.29	0.0028874
2616.93	0.0023842
2626.57	0.00276801
2636.21	0.003301
2645.86	0.00296786
2655.5	0.0027545
2665.14	0.00253628
2674.78	0.00219437
2684.43	0.0022799
2694.07	0.00266995
2703.71	0.00235465
2713.35	0.00318434
2722.99	0.00318313
2732.64	0.0030892
2742.28	0.0022137
2751.92	0.00324704
2761.56	0.00274246
2771.21	0.00286293
2780.85	0.00334245
2790.49	0.00230137
2800.13	0.00288669
2809.78	0.00283736
2819.42	0.00233141
2829.06	0.001712
2838.7	0.00176227
2848.34	0.00132133
2857.99	0.00247375
2867.63	0.0018548
2877.27	0.00215734
2886.91	0.001766
2896.56	0.00216737
2906.2	0.00142746
2915.84	0.00195351
2925.48	0.00332864
2935.13	0.00492393
2944.77	0.00282779
2954.41	0.00171252
2964.05	0.00402888
2973.7	0.00248925
2983.34	0.00422493
2992.98	0.00470608
3002.62	0.00526237
3012.26	0.0039279
3021.91	0.00532645
3031.55	0.00356887
3041.19	0.00398609
3050.83	0.00367748
3060.48	0.0036135
3070.12	0.00240237
3079.76	0.00454245
3089.4	0.0052393
3099.05	0.00400233
3108.69	0.00340061
3118.33	0.00346612
3127.97	0.00464201
3137.61	0.00398385
3147.26	0.00432099
3156.9	0.00396845
3166.54	0.00372325
3176.18	0.00406362
3185.83	0.00421007
3195.47	0.0037427
3205.11	0.00348383
3214.75	0.00365381
3224.4	0.00328364
3234.04	0.00321103
3243.68	0.00390261
3253.32	0.00415083
3262.97	0.00405349
3272.61	0.00357459
3282.25	0.00359106
3291.89	0.00384364
3301.53	0.00374407
3311.18	0.00328134
3320.82	0.00372335
3330.46	0.00342064
3340.1	0.00425267
3349.75	0.00424347
3359.39	0.00361555
3369.03	0.00361375
3378.67	0.00347378
3388.32	0.00363583
3397.96	0.00417193
3407.6	0.00356988
3417.24	0.00326932
3426.89	0.00338491
3436.53	0.00285935
3446.17	0.00257914
3455.81	0.00311891
3465.45	0.00333643
3475.1	0.00344262
3484.74	0.00360322
3494.38	0.00221512
3504.02	0.00326224
3513.67	0.00331599
3523.31	0.00303899
3532.95	0.0041343
3542.59	0.00199054
3552.24	0.00229912
3561.88	0.00230844
3571.52	0.00263904
3581.16	0.00244077
3590.8	0.00127059
3600.45	0.00160589
3610.09	0.00224106
3619.73	0.00214675
3629.37	0.00280049
3639.02	0.00148395
3648.66	0.00313473
3658.3	0.00200705
3667.94	0.00112536
3677.59	0.00303365
3687.23	0.00248652
3696.87	0.00250345
3706.51	0.00247676
3716.16	0.00184514
3725.8	0.00169919
3735.44	0.00278184
3745.08	0.00207174
3754.72	0.00271119
3764.37	0.00202463
3774.01	0.00151947
3783.65	0.00241842
3793.29	0.00263474
3802.94	0.00128259
3812.58	0.00281906
3822.22	0.00235445
3831.86	0.00154148
3841.51	0.00268892
3851.15	0.00292379
3860.79	0.00241418
3870.43	0.00206288
3880.07	0.00256438
3889.72	0.0028819
3899.36	0.00176106
3909	0.00212108
3918.64	0.00331432
3928.29	0.00206844
3937.93	0.00203062
3947.57	0.00288033
3957.21	0.00219374
3966.86	0.00226984
3976.5	0.000971217
3986.14	0.000823399
3995.78	0.00209657
