Measurement: Infrared, Infrared Data Processed
Mineral: Fluor-uvite
Rruff sample: R050301
Ideal chemistry: CaMg_3_(Al_5_Mg)(Si_6_O_18_)(BO_3_)_3_(OH)_3_F
Locality: Brumado, Bahia, Brazil
Source: Eugene Schlepp
Description: Short prismatic green crystals
Measured chemistry: (Ca_0.68_Na_0.22_[box]_0.10_)(Mg_0.77_Al_0.16_Ti_0.03_[box]_0.04_)_3_(Mg_1.00_Al_5.00_)(BO_3_)_3_Si_6.00_O_18_((OH)_3_F)
x	intensity
399.193	0.292102
408.835	0.291828
418.477	0.301754
428.12	0.281638
437.762	0.306578
447.404	0.314474
457.047	0.309942
466.689	0.323126
476.331	0.331283
485.974	0.31169
495.616	0.290738
505.258	0.253331
514.901	0.215714
524.543	0.188168
534.185	0.16027
543.828	0.143531
553.47	0.144484
563.112	0.161167
572.755	0.157836
582.397	0.134617
592.039	0.121063
601.682	0.126367
611.324	0.113631
620.966	0.0879427
630.609	0.0740703
640.251	0.0784409
649.893	0.0909576
659.536	0.0797319
669.178	0.0823695
678.82	0.0914373
688.463	0.105087
698.105	0.144208
707.747	0.170512
717.39	0.139193
727.032	0.12214
736.674	0.085282
746.317	0.0660993
755.959	0.082929
765.601	0.112917
775.244	0.115677
784.886	0.0973603
794.528	0.0730198
804.171	0.037602
813.813	0.0329733
823.455	0.0326068
833.098	0.0326269
842.74	0.0329131
852.382	0.0364699
862.025	0.0436405
871.667	0.0535736
881.309	0.0665185
890.952	0.0783882
900.594	0.0938129
910.236	0.117923
919.879	0.150127
929.521	0.198781
939.163	0.255173
948.806	0.30805
958.448	0.326248
968.09	0.313133
977.733	0.308237
987.375	0.2747
997.017	0.22126
1006.66	0.174467
1016.3	0.168289
1025.94	0.189517
1035.59	0.197011
1045.23	0.193423
1054.87	0.187555
1064.51	0.191867
1074.16	0.191202
1083.8	0.173271
1093.44	0.141009
1103.08	0.105978
1112.72	0.0787352
1122.37	0.0545733
1132.01	0.0339931
1141.65	0.0202458
1151.3	0.0154826
1160.94	0.0139548
1170.58	0.0136322
1180.22	0.0154178
1189.86	0.0197979
1199.51	0.030115
1209.15	0.0504902
1218.79	0.0816089
1228.43	0.118651
1238.08	0.144404
1247.72	0.149442
1257.36	0.146683
1267	0.140948
1276.64	0.133879
1286.29	0.124381
1295.93	0.111514
1305.57	0.0956929
1315.21	0.0879852
1324.86	0.0845097
1334.5	0.0880042
1344.14	0.09157
1353.78	0.0793846
1363.43	0.0642311
1373.07	0.0499542
1382.71	0.0399314
1392.35	0.0368532
1401.99	0.0314025
1411.64	0.0236498
1421.28	0.0179304
1430.92	0.0136657
1440.57	0.0102958
1450.21	0.00844588
1459.85	0.0064863
1469.49	0.00644424
1479.13	0.00791789
1488.78	0.00757763
1498.42	0.00653304
1508.06	0.00726327
1517.7	0.00696988
1527.35	0.006877
1536.99	0.00630147
1546.63	0.00588136
1556.27	0.00587017
1565.91	0.0057833
1575.56	0.00564971
1585.2	0.00560501
1594.84	0.00593911
1604.48	0.0054178
1614.13	0.00571657
1623.77	0.00561306
1633.41	0.00614197
1643.05	0.00621409
1652.7	0.00650001
1662.34	0.0059153
1671.98	0.00565398
1681.62	0.00489871
1691.27	0.00468194
1700.91	0.00362458
1710.55	0.00216733
1720.19	0.00239817
1729.84	0.000100253
1739.48	-0.00279661
1749.12	-0.00195539
1758.76	0.00292628
1768.4	0.00447385
1778.05	0.00452545
1787.69	0.00416584
1797.33	0.0039552
1806.97	0.00433702
1816.62	0.00372599
1826.26	0.00331215
1835.9	0.00342366
1845.54	0.00343022
1855.18	0.00326413
1864.83	0.00305481
1874.47	0.00342279
1884.11	0.00348253
1893.75	0.00333017
1903.4	0.00141309
1913.04	-8.84198e-05
1922.68	0.00065758
1932.32	-0.000521135
1941.97	0.000459421
1951.61	-0.00197805
1961.25	-0.00419685
1970.89	-0.0030574
1980.54	5.59784e-05
1990.18	-0.000228791
1999.82	-0.00050179
2009.46	-0.00629438
2019.11	0.00233354
2028.75	0.00114544
2038.39	-0.00212422
2048.03	-0.000619953
2057.67	0.000503371
2067.32	0.0031584
2076.96	0.000881921
2086.6	0.00177408
2096.24	0.00341388
2105.89	0.00159467
2115.53	0.00258
2125.17	-0.000539718
2134.81	-0.0021283
2144.45	-0.00323467
2154.1	-0.00188736
2163.74	-0.00319481
2173.38	0.00139527
2183.02	-0.001204
2192.67	0.00264078
2202.31	0.00189029
2211.95	0.00625451
2221.59	0.006746
2231.24	0.00419386
2240.88	0.0076856
2250.52	0.00877185
2260.16	0.00839181
2269.8	0.00855475
2279.45	0.0104822
2289.09	0.0107776
2298.73	0.0109932
2308.38	0.0102732
2318.02	0.0111942
2327.66	0.0106486
2337.3	0.0103755
2346.94	0.00924153
2356.59	0.0105701
2366.23	0.00836929
2375.87	0.00859199
2385.51	0.0102195
2395.16	0.00939886
2404.8	0.00882468
2414.44	0.0079342
2424.08	0.00862826
2433.72	0.00859478
2443.37	0.00794467
2453.01	0.00718739
2462.65	0.00585578
2472.29	0.00679164
2481.94	0.00616958
2491.58	0.00779613
2501.22	0.00521476
2510.86	0.00809021
2520.51	0.00678945
2530.15	0.00747925
2539.79	0.00794961
2549.43	0.00490004
2559.07	0.00815116
2568.72	0.00598724
2578.36	0.00819684
2588	0.00766494
2597.64	0.00949494
2607.29	0.010601
2616.93	0.0103595
2626.57	0.00807258
2636.21	0.0102835
2645.86	0.0105735
2655.5	0.0108246
2665.14	0.0101097
2674.78	0.00935682
2684.43	0.0106061
2694.07	0.00953434
2703.71	0.00941606
2713.35	0.0118014
2722.99	0.0118618
2732.64	0.0117265
2742.28	0.0101976
2751.92	0.0111781
2761.56	0.0117829
2771.21	0.012374
2780.85	0.0134673
2790.49	0.013402
2800.13	0.0131481
2809.78	0.0145611
2819.42	0.0135488
2829.06	0.0129416
2838.7	0.0150191
2848.34	0.013765
2857.99	0.0152911
2867.63	0.0153022
2877.27	0.0155158
2886.91	0.0151659
2896.56	0.0145673
2906.2	0.0130495
2915.84	0.0150786
2925.48	0.0149161
2935.13	0.0164367
2944.77	0.0145442
2954.41	0.012374
2964.05	0.0180722
2973.7	0.0160251
2983.34	0.0172204
2992.98	0.0178987
3002.62	0.0187194
3012.26	0.0186926
3021.91	0.0186542
3031.55	0.0173538
3041.19	0.0188843
3050.83	0.0171335
3060.48	0.0188572
3070.12	0.0169836
3079.76	0.0190403
3089.4	0.0202949
3099.05	0.0202721
3108.69	0.020104
3118.33	0.0197299
3127.97	0.0210892
3137.61	0.0219868
3147.26	0.0206385
3156.9	0.0190993
3166.54	0.0203571
3176.18	0.0205615
3185.83	0.0208856
3195.47	0.0217489
3205.11	0.0215654
3214.75	0.0190011
3224.4	0.0244144
3234.04	0.0242852
3243.68	0.0232029
3253.32	0.0222246
3262.97	0.025218
3272.61	0.0221039
3282.25	0.022529
3291.89	0.022212
3301.53	0.0245251
3311.18	0.0265849
3320.82	0.0205288
3330.46	0.0238591
3340.1	0.0249481
3349.75	0.0256204
3359.39	0.0243137
3369.03	0.0244469
3378.67	0.0248353
3388.32	0.0237904
3397.96	0.0248465
3407.6	0.0236606
3417.24	0.0258741
3426.89	0.0253892
3436.53	0.0273603
3446.17	0.0250954
3455.81	0.0263711
3465.45	0.0223711
3475.1	0.0233439
3484.74	0.0293306
3494.38	0.0232306
3504.02	0.0290242
3513.67	0.0285001
3523.31	0.031205
3532.95	0.0323552
3542.59	0.0347396
3552.24	0.0379065
3561.88	0.0361947
3571.52	0.0466247
3581.16	0.0448678
3590.8	0.0379356
3600.45	0.0370805
3610.09	0.0290233
3619.73	0.0258866
3629.37	0.0230434
3639.02	0.0213759
3648.66	0.0179704
3658.3	0.0189361
3667.94	0.0179625
3677.59	0.0174188
3687.23	0.017853
3696.87	0.0190448
3706.51	0.0184616
3716.16	0.0157329
3725.8	0.018677
3735.44	0.0116939
3745.08	0.0201836
3754.72	0.0200897
3764.37	0.0219915
3774.01	0.0189587
3783.65	0.0149311
3793.29	0.0184289
3802.94	0.0171233
3812.58	0.0211688
3822.22	0.0200578
3831.86	0.0164914
3841.51	0.0226513
3851.15	0.0209443
3860.79	0.0237174
3870.43	0.0226471
3880.07	0.0185047
3889.72	0.0236204
3899.36	0.0239347
3909	0.0203009
3918.64	0.0199512
3928.29	0.0214519
3937.93	0.0219638
3947.57	0.017758
3957.21	0.0257828
3966.86	0.0207725
3976.5	0.0191929
3986.14	0.0259501
3995.78	0.0223628
