Measurement: Infrared, Infrared Data Processed
Mineral: Foitite
Rruff sample: R050495
Ideal chemistry: [box](Fe^2+^_2_Al)Al_6_(Si_6_O_18_)(BO_3_)_3_(OH)_3_OH
Locality: Coahuila Mountain, California, USA
Source: California Institute of Technology
Description: Bluish black prismatic fragment
Measured chemistry: ([box]_0.54_Na_0.46_)_Σ=1_(Fe^2+^_1.75_Al_0.85_Mg_0.18_Li_0.14_Mn_0.08_)_Σ=3_Al_6.00_(BO_3_)_3_(Si_5.83_Al_0.17_)_Σ=6_O_18_(OH)_4_ ; B and Li not measured but estimated by charge balance
x	intensity
50.1401	0.0150583
52.0686	0.00825438
53.9971	0.0128022
55.9255	0.0150881
57.854	0.0185138
59.7825	0.019485
61.7109	0.0197527
63.6394	0.0199802
65.5679	0.0174048
67.4963	0.0177937
69.4248	0.0214229
71.3533	0.0225822
73.2817	0.0240139
75.2102	0.0238298
77.1387	0.0239341
79.0671	0.0256159
80.9956	0.0277043
82.9241	0.0282628
84.8525	0.0281201
86.781	0.0275881
88.7095	0.0292211
90.6379	0.0296695
92.5664	0.0294898
94.4948	0.0317375
96.4233	0.0337478
98.3518	0.0335882
100.28	0.0337837
102.209	0.0346088
104.137	0.0358605
106.066	0.0367044
107.994	0.037493
109.923	0.038149
111.851	0.0388667
113.779	0.0409023
115.708	0.0433709
117.636	0.0450291
119.565	0.0462754
121.493	0.0474588
123.422	0.0486594
125.35	0.0497307
127.279	0.0510814
129.207	0.0519361
131.136	0.0528835
133.064	0.052742
134.993	0.0521908
136.921	0.0529362
138.85	0.0534839
140.778	0.053337
142.707	0.0536038
144.635	0.0535376
146.563	0.0539179
148.492	0.0536553
150.42	0.0532302
152.349	0.054768
154.277	0.05663
156.206	0.0573408
158.134	0.0577529
160.063	0.0578615
161.991	0.0581678
163.92	0.0593888
165.848	0.0607662
167.777	0.0616193
169.705	0.0625265
171.633	0.0630255
173.562	0.0641846
175.49	0.0652757
177.419	0.0659984
179.347	0.0664794
181.276	0.0672792
183.204	0.068536
185.133	0.0695248
187.061	0.0698574
188.99	0.0703452
190.918	0.0713728
192.847	0.0720489
194.775	0.0724244
196.704	0.0726834
198.632	0.0730138
200.56	0.0742701
202.489	0.0749682
204.417	0.0750771
206.346	0.0757929
208.274	0.0766043
210.203	0.0776757
212.131	0.0787661
214.06	0.0795526
215.988	0.0801775
217.917	0.0812628
219.845	0.0825499
221.774	0.083127
223.702	0.0837911
225.631	0.084683
227.559	0.0849771
229.488	0.0842008
231.416	0.0833989
233.344	0.0820941
235.273	0.0812334
237.201	0.0807236
239.13	0.0812104
241.058	0.0817619
242.987	0.0824315
244.915	0.0833007
246.844	0.0845888
248.772	0.0859393
250.701	0.0871651
252.629	0.0881717
254.558	0.0892154
256.486	0.0904857
258.414	0.091631
260.343	0.0928863
262.271	0.0938443
264.2	0.0943801
266.128	0.0943652
268.057	0.0939592
269.985	0.0935562
271.914	0.0929224
273.842	0.0922696
275.771	0.0920506
277.699	0.0925477
279.628	0.0933167
281.556	0.0943719
283.485	0.0951085
285.413	0.095642
287.341	0.0966841
289.27	0.0983421
291.198	0.0997924
293.127	0.101429
295.055	0.102774
296.984	0.103466
298.912	0.103822
300.841	0.104023
302.769	0.103545
304.698	0.103177
306.626	0.103007
308.555	0.10308
310.483	0.103126
312.411	0.103192
314.34	0.103471
316.269	0.104561
318.197	0.106222
320.125	0.107994
322.054	0.109829
323.982	0.111735
325.911	0.113609
327.839	0.114966
329.768	0.115003
331.696	0.113591
333.625	0.11121
335.553	0.109859
337.482	0.109835
339.41	0.110638
341.339	0.11153
343.267	0.112522
345.195	0.113595
347.124	0.114361
349.052	0.11545
350.981	0.116925
352.909	0.118583
354.838	0.120043
356.766	0.121283
358.695	0.122813
360.623	0.123849
362.552	0.124525
364.48	0.124882
366.409	0.124931
368.337	0.124668
370.265	0.124218
372.194	0.123864
374.122	0.123937
376.051	0.124303
377.979	0.124995
379.908	0.125761
381.836	0.126677
383.765	0.127165
385.693	0.127588
387.622	0.128697
389.55	0.129748
391.479	0.130733
393.407	0.131661
395.336	0.132797
397.264	0.134258
399.192	0.135653
401.121	0.137399
403.049	0.138907
404.978	0.140465
406.906	0.141685
408.835	0.142775
410.763	0.144415
412.692	0.145806
414.62	0.147252
416.549	0.149267
418.477	0.150728
420.406	0.151012
422.334	0.150955
424.262	0.150616
426.191	0.149733
428.12	0.148462
430.048	0.14708
431.976	0.146564
433.905	0.146321
435.833	0.146278
437.762	0.146597
439.69	0.147286
441.619	0.147718
443.547	0.147789
445.476	0.147287
447.404	0.146472
449.333	0.145509
451.261	0.144339
453.19	0.143703
455.118	0.143371
457.046	0.143796
458.975	0.144919
460.903	0.146217
462.832	0.148064
464.76	0.149724
466.689	0.151473
468.617	0.153162
470.546	0.154213
472.474	0.156417
474.403	0.158799
476.331	0.160606
478.26	0.161551
480.188	0.16248
482.116	0.163902
484.045	0.16505
485.974	0.166394
487.902	0.16756
489.83	0.168044
491.759	0.16862
493.687	0.169555
495.616	0.169345
497.544	0.168509
499.473	0.167981
501.401	0.167226
503.33	0.166117
505.258	0.165404
507.187	0.164754
509.115	0.163076
511.043	0.161429
512.972	0.160227
514.9	0.158282
516.829	0.156204
518.757	0.154583
520.686	0.152283
522.614	0.149287
524.543	0.14659
526.471	0.143415
528.4	0.140493
530.328	0.138235
532.257	0.136274
534.185	0.134406
536.114	0.132688
538.042	0.131158
539.971	0.129627
541.899	0.128118
543.827	0.126665
545.756	0.125492
547.684	0.125268
549.613	0.125647
551.541	0.126158
553.47	0.125611
555.398	0.12517
557.327	0.124212
559.255	0.123084
561.184	0.121345
563.112	0.119345
565.041	0.118208
566.969	0.117487
568.898	0.116526
570.826	0.116805
572.755	0.117615
574.683	0.1186
576.611	0.119574
578.54	0.120131
580.468	0.120219
582.397	0.120314
584.325	0.119962
586.254	0.119175
588.182	0.118156
590.111	0.117059
592.039	0.115351
593.968	0.113533
595.896	0.111946
597.824	0.110018
599.753	0.108384
601.682	0.107568
603.61	0.107409
605.538	0.107167
607.467	0.106872
609.395	0.107091
611.324	0.106079
613.252	0.104485
615.181	0.103231
617.109	0.101777
619.038	0.0987489
620.966	0.0956402
622.894	0.093601
624.823	0.0923154
626.751	0.0915243
628.68	0.0920897
630.608	0.0933033
632.537	0.0939861
634.465	0.0941612
636.394	0.0943297
638.322	0.0947938
640.251	0.0956766
642.179	0.0964428
644.108	0.0971131
646.036	0.0971802
647.965	0.0976102
649.893	0.0980321
651.822	0.0977778
653.75	0.0968131
655.678	0.0959298
657.607	0.0953275
659.535	0.0947469
661.464	0.0941576
663.392	0.0938855
665.321	0.0936708
667.249	0.093736
669.178	0.0933769
671.106	0.0923594
673.035	0.0906412
674.963	0.0894819
676.892	0.0887369
678.82	0.0878703
680.749	0.0871708
682.677	0.0870669
684.606	0.087036
686.534	0.086998
688.462	0.088279
690.391	0.0907119
692.319	0.0941491
694.248	0.0976609
696.176	0.101082
698.105	0.104851
700.033	0.107186
