Measurement: Infrared, Infrared Data Processed
Mineral: Forsterite
Rruff sample: R050117
Ideal chemistry: Mg_2_SiO_4_
Locality: Sapat, Gilgit, Pakistan
Source: Farooq and Nazia Sawal
Description: Fragment of a green crystal
Measured chemistry: (Mg_1.81_Fe_0.18_Ni_0.01_)_Î£=2_Si_1.00_O_4_
x	intensity
50.1401	0.0181838
52.0686	0.0114948
53.9971	0.00775062
55.9255	0.0109739
57.854	0.0173356
59.7825	0.0195401
61.7109	0.016719
63.6394	0.017232
65.5679	0.0160379
67.4963	0.0162879
69.4248	0.0185252
71.3533	0.0202463
73.2817	0.0198626
75.2102	0.0194554
77.1387	0.0193174
79.0671	0.0209636
80.9956	0.0211352
82.9241	0.0214485
84.8525	0.0218835
86.781	0.0221703
88.7095	0.0226386
90.6379	0.0225802
92.5664	0.0236627
94.4948	0.0237771
96.4233	0.023845
98.3518	0.0245724
100.28	0.0249877
102.209	0.0254285
104.137	0.0258424
106.066	0.0258813
107.994	0.0262822
109.923	0.0268505
111.851	0.0279398
113.779	0.0292168
115.708	0.0290167
117.636	0.028868
119.565	0.0294851
121.493	0.0303965
123.422	0.0312462
125.35	0.0322852
127.279	0.0331534
129.207	0.0339731
131.136	0.0352248
133.064	0.0365853
134.993	0.0379624
136.921	0.0385009
138.85	0.0384738
140.778	0.0389815
142.707	0.0389674
144.635	0.0392397
146.563	0.0396664
148.492	0.04074
150.42	0.0416064
152.349	0.0421566
154.277	0.042504
156.206	0.0432223
158.134	0.0442623
160.063	0.0451004
161.991	0.0452936
163.92	0.0453617
165.848	0.0458753
167.777	0.0466106
169.705	0.0471942
171.633	0.0471904
173.562	0.0474382
175.49	0.0478107
177.419	0.0481599
179.347	0.0486989
181.276	0.0486541
183.204	0.0492954
185.133	0.0502504
187.061	0.0506451
188.99	0.0505895
190.918	0.050831
192.847	0.0514934
194.775	0.0521944
196.704	0.0525637
198.632	0.052733
200.56	0.0529308
202.489	0.0536682
204.417	0.054109
206.346	0.0545248
208.274	0.055139
210.203	0.0552541
212.131	0.0556365
214.06	0.0565276
215.988	0.0569456
217.917	0.0574462
219.845	0.0579773
221.774	0.05831
223.702	0.0587007
225.631	0.0595748
227.559	0.0603603
229.488	0.0604478
231.416	0.0607159
233.344	0.0611308
235.273	0.0616238
237.201	0.0621255
239.13	0.0629477
241.058	0.0635048
242.987	0.0641073
244.915	0.0644937
246.844	0.0651403
248.772	0.0659663
250.701	0.0662022
252.629	0.066739
254.558	0.0675306
256.486	0.0677642
258.414	0.0682527
260.343	0.0694392
262.271	0.070565
264.2	0.0717155
266.128	0.0725256
268.057	0.0731108
269.985	0.073918
271.914	0.0747068
273.842	0.0750368
275.771	0.0756184
277.699	0.0768876
279.628	0.0780878
281.556	0.0786604
283.485	0.0786764
285.413	0.0784278
287.341	0.0784235
289.27	0.0780302
291.198	0.0778043
293.127	0.0774208
295.055	0.0757924
296.984	0.0735677
298.912	0.071153
300.841	0.0685026
302.769	0.0655141
304.698	0.0624531
306.626	0.0602687
308.555	0.058862
310.483	0.058695
312.411	0.0598926
314.34	0.0610117
316.269	0.0620963
318.197	0.0635656
320.125	0.065569
322.054	0.0679968
323.982	0.0700958
325.911	0.071896
327.839	0.0741675
329.768	0.076259
331.696	0.0777734
333.625	0.0794942
335.553	0.0812652
337.482	0.0828313
339.41	0.0839862
341.339	0.0844348
343.267	0.0850925
345.195	0.0865012
347.124	0.0873356
349.052	0.0876593
350.981	0.0882927
352.909	0.0887064
354.838	0.0892319
356.766	0.0893955
358.695	0.0890162
360.623	0.0881688
362.552	0.0870372
364.48	0.0856914
366.409	0.084298
368.337	0.0830988
370.265	0.0826063
372.194	0.0827517
374.122	0.0835309
376.051	0.0846146
377.979	0.0856934
379.908	0.086269
381.836	0.0867286
383.765	0.087897
385.693	0.0899008
387.622	0.0924583
389.55	0.0948508
391.479	0.0967565
393.407	0.0978732
395.336	0.0984429
397.264	0.0983741
399.192	0.0979424
401.121	0.0973009
403.049	0.097364
404.978	0.0980096
406.906	0.0991396
408.835	0.100335
410.763	0.10084
412.692	0.100416
414.62	0.0994821
416.549	0.0979177
418.477	0.0960938
420.406	0.0938705
422.334	0.0914523
424.262	0.0889381
426.191	0.0862965
428.12	0.0837384
430.048	0.0808563
431.976	0.0779162
433.905	0.0749788
435.833	0.0724417
437.762	0.0705849
439.69	0.068982
441.619	0.067732
443.547	0.0663846
445.476	0.064817
447.404	0.0632751
449.333	0.0616698
451.261	0.0602588
453.19	0.0593896
455.118	0.0594548
457.046	0.0606052
458.975	0.0623369
460.903	0.0640558
462.832	0.065898
464.76	0.0677456
466.689	0.0687823
468.617	0.0694802
470.546	0.0690303
472.474	0.0678637
474.403	0.0665986
476.331	0.0653065
478.26	0.0637977
480.188	0.0628991
482.116	0.063167
484.045	0.064771
485.974	0.0678029
487.902	0.0719546
489.83	0.0769509
491.759	0.0817219
493.687	0.0864195
495.616	0.0902972
497.544	0.0932846
499.473	0.0954466
501.401	0.0963354
503.33	0.0957687
505.258	0.0938869
507.187	0.0915964
509.115	0.0892155
511.043	0.0876902
512.972	0.0862837
514.9	0.0851349
516.829	0.0844073
518.757	0.0838175
520.686	0.0831887
522.614	0.0822806
524.543	0.0805894
526.471	0.0784573
528.4	0.0762793
530.328	0.0736651
532.257	0.0707369
534.185	0.0679764
536.114	0.0658557
538.042	0.0642228
539.971	0.0627676
541.899	0.0614589
543.827	0.0604037
545.756	0.0586852
547.684	0.0562408
549.613	0.0536439
551.541	0.0514665
553.47	0.0493581
555.398	0.0470564
557.327	0.0450669
559.255	0.0439614
561.184	0.0426181
563.112	0.0410317
565.041	0.0396556
566.969	0.0385791
568.898	0.0374173
570.826	0.0366919
572.755	0.0361044
574.683	0.0356283
576.611	0.0355766
578.54	0.0356549
580.468	0.0359205
582.397	0.0365337
584.325	0.0373811
586.254	0.0388364
588.182	0.0406683
590.111	0.0428002
592.039	0.045721
593.968	0.0492095
595.896	0.052296
597.824	0.0551732
599.753	0.0576735
601.682	0.0592463
603.61	0.0605173
605.538	0.0608665
607.467	0.0602321
609.395	0.0596003
611.324	0.0589564
613.252	0.0577998
615.181	0.0562218
617.109	0.054967
619.038	0.0531985
620.966	0.0514007
622.894	0.0499872
624.823	0.0479329
626.751	0.0466398
628.68	0.0460056
630.608	0.0445769
632.537	0.0430438
634.465	0.0419721
636.394	0.0405741
638.322	0.0390335
640.251	0.0376115
642.179	0.0362998
644.108	0.0355345
646.036	0.0347121
647.965	0.0339904
649.893	0.0333938
651.822	0.0330763
653.75	0.032961
655.678	0.0331258
657.607	0.0330787
659.535	0.0329943
661.464	0.0326347
663.392	0.0319743
665.321	0.0320488
667.249	0.0328021
669.178	0.0327146
671.106	0.0322127
673.035	0.031987
674.963	0.0319032
676.892	0.0319047
678.82	0.0321191
680.749	0.031916
682.677	0.0316582
684.606	0.0320137
686.534	0.0324684
688.462	0.0328318
690.391	0.0327429
692.319	0.0332705
694.248	0.0346498
696.176	0.0357053
698.105	0.0352572
700.033	0.0330418
