Measurement: Infrared, Infrared Data Processed
Mineral: Franklinite
Rruff sample: R070137
Ideal chemistry: Zn^2+^Fe^3+^_2_O_4_
Locality: Franklin mine, Franklin, Sussex County, New Jersey, USA
Source: Michael Scott
Description: Gray semi-metallic octahedral crystals associated with calcite
Measured chemistry: (Zn_0.63_Mn_0.36_Mg_0.01_)_Σ=1_(Fe^3+^_1.96_Al_0.04_)_Σ=2_O_4_
x	intensity
374.123	0.343013
383.765	0.323894
393.407	0.305463
403.05	0.285305
412.692	0.248053
422.334	0.225662
431.976	0.203458
441.619	0.185656
451.261	0.170671
460.904	0.152084
470.546	0.133863
480.188	0.125896
489.83	0.128771
499.473	0.141355
509.115	0.191411
518.758	0.256017
528.4	0.286159
538.042	0.28105
547.684	0.249344
557.327	0.210484
566.969	0.175921
576.611	0.146614
586.254	0.121114
595.896	0.100841
605.538	0.0847263
615.181	0.0720456
624.823	0.0622359
634.466	0.0571243
644.108	0.0550782
653.75	0.055405
663.393	0.0551528
673.035	0.0524429
682.677	0.0487166
692.319	0.0441331
701.962	0.0385672
711.604	0.0341118
721.246	0.0298569
730.889	0.0271448
740.531	0.0250396
750.173	0.02388
759.816	0.0231973
769.458	0.0228394
779.101	0.0224474
788.743	0.0219121
798.385	0.0213469
808.028	0.0211018
817.67	0.020985
827.312	0.0213532
836.955	0.022205
846.597	0.0229776
856.239	0.0237383
865.881	0.0242047
875.524	0.0253577
885.166	0.0247123
894.808	0.0251859
904.451	0.0265969
914.093	0.0281
923.736	0.0301903
933.378	0.0326816
943.02	0.0350794
952.663	0.0374908
962.305	0.039635
971.947	0.0417384
981.59	0.0436397
991.232	0.0450592
1000.87	0.0452753
1010.52	0.0459503
1020.16	0.0464
1029.8	0.0471941
1039.44	0.0478581
1049.09	0.0489424
1058.73	0.0508112
1068.37	0.0523847
1078.01	0.053921
1087.65	0.0547523
1097.3	0.0549714
1106.94	0.0550123
1116.58	0.0553351
1126.22	0.0559101
1135.87	0.0569066
1145.51	0.0577549
1155.15	0.0588048
1164.79	0.0595565
1174.44	0.0606133
1184.08	0.0622884
1193.72	0.0637661
1203.36	0.0651239
1213.01	0.0662019
1222.65	0.067414
1232.29	0.0687269
1241.93	0.0696636
1251.58	0.0709556
1261.22	0.0723321
1270.86	0.0736815
1280.5	0.0752675
1290.14	0.0769628
1299.79	0.0785906
1309.43	0.0802331
1319.07	0.0817078
1328.71	0.0832438
1338.36	0.0848986
1348	0.0868185
1357.64	0.0882591
1367.28	0.0898136
1376.92	0.0917003
1386.57	0.0936262
1396.21	0.0961147
1405.85	0.0986254
1415.49	0.100809
1425.14	0.102632
1434.78	0.104089
1444.42	0.105204
1454.06	0.106287
1463.71	0.106871
1473.35	0.107136
1482.99	0.107964
1492.63	0.108509
1502.28	0.109298
1511.92	0.109936
1521.56	0.11063
1531.2	0.111853
1540.85	0.112873
1550.49	0.11414
1560.13	0.115404
1569.77	0.116802
1579.41	0.118105
1589.06	0.11927
1598.7	0.120543
1608.34	0.12154
1617.98	0.122569
1627.63	0.123607
1637.27	0.124361
1646.91	0.124984
1656.55	0.125546
1666.19	0.126181
1675.84	0.126611
1685.48	0.127168
1695.12	0.127756
1704.77	0.128796
1714.41	0.129709
1724.05	0.130698
1733.69	0.130721
1743.33	0.131626
1752.98	0.131886
1762.62	0.133116
1772.26	0.133976
1781.9	0.134936
1791.55	0.136032
1801.19	0.136938
1810.83	0.137734
1820.47	0.138937
1830.12	0.139619
1839.76	0.140554
1849.4	0.141878
1859.04	0.142254
1868.68	0.143428
1878.33	0.144316
1887.97	0.145102
1897.61	0.145728
1907.25	0.147205
1916.9	0.147188
1926.54	0.148199
1936.18	0.148594
1945.82	0.150225
1955.46	0.149486
1965.11	0.149516
1974.75	0.151166
1984.39	0.153816
1994.04	0.154156
2003.68	0.153374
2013.32	0.153878
2022.96	0.153701
2032.6	0.154969
2042.25	0.156373
2051.89	0.1572
2061.53	0.157289
2071.17	0.158809
2080.82	0.159675
2090.46	0.159428
2100.1	0.160258
2109.74	0.161197
2119.39	0.161227
2129.03	0.160058
2138.67	0.160078
2148.31	0.160728
2157.95	0.160996
2167.6	0.166173
2177.24	0.165502
2186.88	0.166174
2196.52	0.167249
2206.17	0.167483
2215.81	0.168504
2225.45	0.169247
2235.09	0.16971
2244.74	0.170484
2254.38	0.170805
2264.02	0.171287
2273.66	0.172673
2283.3	0.174248
2292.95	0.173859
2302.59	0.174181
2312.23	0.175084
2321.87	0.177053
2331.52	0.175332
2341.16	0.175987
2350.8	0.176722
2360.44	0.176768
2370.09	0.177043
2379.73	0.178105
2389.37	0.17835
2399.01	0.179142
2408.66	0.180669
2418.3	0.180849
2427.94	0.181288
2437.58	0.182355
2447.22	0.183106
2456.87	0.184041
2466.51	0.184153
2476.15	0.18489
2485.79	0.184708
2495.44	0.185613
2505.08	0.18611
2514.72	0.186577
2524.36	0.186928
2534.01	0.187581
2543.65	0.18796
2553.29	0.188749
2562.93	0.18843
2572.57	0.189356
2582.22	0.190016
2591.86	0.19039
2601.5	0.190972
2611.14	0.191725
2620.79	0.192354
2630.43	0.193013
2640.07	0.193372
2649.71	0.194266
2659.36	0.194343
2669	0.194265
2678.64	0.194814
2688.28	0.19534
2697.93	0.195449
2707.57	0.196799
2717.21	0.196861
2726.85	0.197993
2736.49	0.198827
2746.14	0.199342
2755.78	0.199927
2765.42	0.200515
2775.06	0.200595
2784.71	0.201834
2794.35	0.202562
2803.99	0.20283
2813.63	0.203488
2823.28	0.203943
2832.92	0.205312
2842.56	0.206073
2852.2	0.206106
2861.84	0.206226
2871.49	0.207102
2881.13	0.207696
2890.77	0.20809
2900.41	0.209278
2910.06	0.21009
2919.7	0.209993
2929.34	0.209875
2938.98	0.209977
2948.62	0.21057
2958.27	0.21055
2967.91	0.210961
2977.55	0.211666
2987.2	0.212007
2996.84	0.21234
3006.48	0.212502
3016.12	0.213861
3025.76	0.214353
3035.41	0.214649
3045.05	0.215211
3054.69	0.216245
3064.33	0.216521
3073.98	0.216908
3083.62	0.217672
3093.26	0.218274
3102.9	0.218764
3112.55	0.218696
3122.19	0.219447
3131.83	0.220078
3141.47	0.220199
3151.11	0.22037
3160.76	0.220669
3170.4	0.22148
3180.04	0.221527
3189.68	0.222229
3199.33	0.222211
3208.97	0.222807
3218.61	0.222607
3228.25	0.2227
3237.9	0.223606
3247.54	0.223284
3257.18	0.22334
3266.82	0.223375
3276.47	0.223927
3286.11	0.224145
3295.75	0.224479
3305.39	0.224772
3315.03	0.224181
3324.68	0.224952
3334.32	0.225275
3343.96	0.225405
3353.6	0.225648
3363.25	0.225902
3372.89	0.225224
3382.53	0.226017
3392.17	0.225866
3401.82	0.225798
3411.46	0.22592
3421.1	0.225583
3430.74	0.226128
3440.39	0.226322
3450.03	0.226224
3459.67	0.225857
3469.31	0.226848
3478.95	0.226908
3488.6	0.226449
3498.24	0.226848
3507.88	0.226896
3517.52	0.227282
3527.17	0.226853
3536.81	0.226672
3546.45	0.226177
3556.09	0.227335
3565.74	0.227252
3575.38	0.225382
3585.02	0.226978
3594.66	0.227469
3604.3	0.22646
3613.95	0.226855
3623.59	0.227202
3633.23	0.228112
3642.87	0.227787
3652.52	0.228386
3662.16	0.228496
3671.8	0.229522
3681.44	0.231174
3691.09	0.229415
3700.73	0.228688
3710.37	0.228929
3720.01	0.228378
3729.66	0.229383
3739.3	0.228898
3748.94	0.229935
3758.58	0.230289
3768.22	0.230016
3777.87	0.230555
3787.51	0.231995
3797.15	0.231846
3806.79	0.231449
3816.44	0.232397
3826.08	0.232727
3835.72	0.23262
3845.36	0.23238
3855.01	0.233685
3864.65	0.232942
3874.29	0.233764
3883.93	0.234467
3893.57	0.234393
3903.22	0.23427
3912.86	0.235254
3922.5	0.23509
3932.14	0.23522
3941.79	0.235094
3951.43	0.235766
3961.07	0.236778
3970.71	0.23537
3980.36	0.237554
3990	0.237022
3999.64	0.236805
