Measurement: Infrared, Infrared Data Processed
Mineral: Garronite-Ca
Rruff sample: R050281
Ideal chemistry: NaCa_2.5_(Si_10_Al_6_)O_32_14H_2_O
Locality: Pete's Point, Aneroid Lake, Wallowa County, Oregon, USA
Source: Marcus Origlieri
Description: White radiating crystal aggregates completely filling amygdules
Measured chemistry: (Na_0.94_K_0.06_)_Σ=1_Ca_2.50_(Si_10.00_Al_6.00_)O_32_·13H_2_O
x	intensity
399.193	0.161802
408.835	0.159998
418.477	0.166684
428.12	0.166872
437.762	0.149314
447.404	0.125293
457.047	0.104757
466.689	0.0928893
476.331	0.0827268
485.974	0.0771181
495.616	0.072545
505.258	0.0722442
514.901	0.0730563
524.543	0.0759776
534.185	0.0772821
543.828	0.0831597
553.47	0.0875853
563.112	0.0944787
572.755	0.102746
582.397	0.108319
592.039	0.10957
601.682	0.104185
611.324	0.093566
620.966	0.0806887
630.609	0.0674696
640.251	0.0591869
649.893	0.0554942
659.536	0.0561106
669.178	0.0582876
678.82	0.0586471
688.463	0.0588453
698.105	0.0579501
707.747	0.0563886
717.39	0.054782
727.032	0.0546379
736.674	0.0542267
746.317	0.0514421
755.959	0.0445264
765.601	0.0394326
775.244	0.0368313
784.886	0.0344176
794.528	0.0299664
804.171	0.0269178
813.813	0.0255211
823.455	0.0255804
833.098	0.0268343
842.74	0.0295789
852.382	0.0328299
862.025	0.0365282
871.667	0.0424391
881.309	0.0506414
890.952	0.0606299
900.594	0.0756242
910.236	0.0975439
919.879	0.128044
929.521	0.167765
939.163	0.21008
948.806	0.242583
958.448	0.261149
968.09	0.270063
977.733	0.271391
987.375	0.26471
997.017	0.252675
1006.66	0.2354
1016.3	0.213191
1025.94	0.187816
1035.59	0.160659
1045.23	0.136468
1054.87	0.116676
1064.51	0.104245
1074.16	0.0969914
1083.8	0.0926457
1093.44	0.0895055
1103.08	0.0866467
1112.72	0.0834028
1122.37	0.0778725
1132.01	0.0710172
1141.65	0.0634283
1151.3	0.0548401
1160.94	0.0448277
1170.58	0.0342787
1180.22	0.0248366
1189.86	0.0177366
1199.51	0.0130174
1209.15	0.0106635
1218.79	0.00836565
1228.43	0.00674159
1238.08	0.00597692
1247.72	0.00497621
1257.36	0.00394312
1267	0.00411093
1276.64	0.00398106
1286.29	0.00363466
1295.93	0.00376595
1305.57	0.00374985
1315.21	0.00403467
1324.86	0.00387489
1334.5	0.00416913
1344.14	0.00382831
1353.78	0.00395227
1363.43	0.00414785
1373.07	0.00376266
1382.71	0.00401453
1392.35	0.00436461
1401.99	0.00485528
1411.64	0.00558577
1421.28	0.00589958
1430.92	0.00609165
1440.57	0.0060284
1450.21	0.00541843
1459.85	0.00523646
1469.49	0.00523727
1479.13	0.00593041
1488.78	0.00648118
1498.42	0.00635006
1508.06	0.00616143
1517.7	0.00645845
1527.35	0.006574
1536.99	0.00723165
1546.63	0.0082338
1556.27	0.00794685
1565.91	0.00887054
1575.56	0.00900567
1585.2	0.0105853
1594.84	0.0121221
1604.48	0.015392
1614.13	0.0207044
1623.77	0.0272425
1633.41	0.0321194
1643.05	0.033261
1652.7	0.0305705
1662.34	0.0262773
1671.98	0.0214004
1681.62	0.0163392
1691.27	0.0104919
1700.91	0.00724312
1710.55	0.00417546
1720.19	0.00348487
1729.84	0.00229507
1739.48	-6.9163e-07
1749.12	0.00108344
1758.76	0.00250672
1768.4	0.00331674
1778.05	0.00284902
1787.69	0.00233422
1797.33	0.00249
1806.97	0.00266507
1816.62	0.00280021
1826.26	0.00176405
1835.9	0.0024159
1845.54	0.0017809
1855.18	0.0022686
1864.83	0.00175158
1874.47	0.00145539
1884.11	0.000517319
1893.75	0.00108179
1903.4	-7.88337e-06
1913.04	-0.00043624
1922.68	-0.000284463
1932.32	-0.00193774
1941.97	-0.00181811
1951.61	-0.00160268
1961.25	-0.00268902
1970.89	-0.00476258
1980.54	-0.00144636
1990.18	-0.000489683
1999.82	-0.00347168
2009.46	-0.00268828
2019.11	-0.00565102
2028.75	-0.00369495
2038.39	-0.00362474
2048.03	-0.00233828
2057.67	0.000511967
2067.32	0.00165556
2076.96	0.00160371
2086.6	0.000868714
2096.24	0.000890179
2105.89	0.0021436
2115.53	0.00198375
2125.17	0.00270312
2134.81	-0.000335506
2144.45	-0.00142987
2154.1	-0.00204676
2163.74	0.00224741
2173.38	0.000322529
2183.02	0.00272673
2192.67	0.0038685
2202.31	0.00448936
2211.95	0.00325692
2221.59	0.00413863
2231.24	0.00325535
2240.88	0.00317771
2250.52	0.00399326
2260.16	0.00421567
2269.8	0.00499901
2279.45	0.0062754
2289.09	0.00699067
2298.73	0.00682508
2308.38	0.00692764
2318.02	0.00602841
2327.66	0.00594215
2337.3	0.00605207
2346.94	0.00512028
2356.59	0.00523503
2366.23	0.00506788
2375.87	0.00407957
2385.51	0.00369522
2395.16	0.00346687
2404.8	0.00525291
2414.44	0.00557416
2424.08	0.00568605
2433.72	0.00519826
2443.37	0.0062035
2453.01	0.00560478
2462.65	0.00565019
2472.29	0.0065165
2481.94	0.00602997
2491.58	0.00542388
2501.22	0.00476825
2510.86	0.00511984
2520.51	0.00606607
2530.15	0.00630662
2539.79	0.00482437
2549.43	0.00590781
2559.07	0.00603237
2568.72	0.00708856
2578.36	0.00712944
2588	0.00635769
2597.64	0.00642881
2607.29	0.00633356
2616.93	0.00794322
2626.57	0.00636947
2636.21	0.00763634
2645.86	0.00727672
2655.5	0.00678315
2665.14	0.00701361
2674.78	0.00752736
2684.43	0.00683592
2694.07	0.00718323
2703.71	0.00782343
2713.35	0.00750742
2722.99	0.00709142
2732.64	0.00827041
2742.28	0.0072072
2751.92	0.00895314
2761.56	0.00794201
2771.21	0.00763389
2780.85	0.00888035
2790.49	0.00906252
2800.13	0.00951474
2809.78	0.0103927
2819.42	0.00889691
2829.06	0.00967279
2838.7	0.0111067
2848.34	0.0114824
2857.99	0.0107108
2867.63	0.00966423
2877.27	0.0111958
2886.91	0.0129491
2896.56	0.0110186
2906.2	0.0109455
2915.84	0.0139074
2925.48	0.0129386
2935.13	0.0115514
2944.77	0.0151649
2954.41	0.0133346
2964.05	0.0156954
2973.7	0.0145074
2983.34	0.0165987
2992.98	0.0179755
3002.62	0.0195658
3012.26	0.0196561
3021.91	0.0213217
3031.55	0.0216983
3041.19	0.0229998
3050.83	0.022513
3060.48	0.0233053
3070.12	0.0250144
3079.76	0.0263543
3089.4	0.0281895
3099.05	0.030427
3108.69	0.0306357
3118.33	0.0330477
3127.97	0.033262
3137.61	0.0346818
3147.26	0.0378741
3156.9	0.0389337
3166.54	0.0400445
3176.18	0.0407505
3185.83	0.0417033
3195.47	0.0433752
3205.11	0.0434253
3214.75	0.0471828
3224.4	0.0450246
3234.04	0.0487054
3243.68	0.0467201
3253.32	0.0476943
3262.97	0.0480956
3272.61	0.0497458
3282.25	0.0495078
3291.89	0.0488936
3301.53	0.0513475
3311.18	0.0512542
3320.82	0.0498383
3330.46	0.0508393
3340.1	0.0497897
3349.75	0.0538121
3359.39	0.0537581
3369.03	0.0561389
3378.67	0.0587488
3388.32	0.0545495
3397.96	0.0576815
3407.6	0.0578323
3417.24	0.0559403
3426.89	0.0574151
3436.53	0.0533767
3446.17	0.0542576
3455.81	0.0557565
3465.45	0.0572755
3475.1	0.0551776
3484.74	0.0515945
3494.38	0.0495265
3504.02	0.0504967
3513.67	0.0499522
3523.31	0.0488582
3532.95	0.0437266
3542.59	0.0453294
3552.24	0.0393208
3561.88	0.043311
3571.52	0.0397495
3581.16	0.0390113
3590.8	0.0359018
3600.45	0.0332666
3610.09	0.0267302
3619.73	0.0263476
3629.37	0.0216212
3639.02	0.0176211
3648.66	0.0082928
3658.3	0.0173647
3667.94	0.00726921
3677.59	0.00759756
3687.23	0.00361453
3696.87	0.00625548
3706.51	0.00987012
3716.16	0.00282784
3725.8	0.00883239
3735.44	0.0125684
3745.08	0.00617462
3754.72	0.00766167
3764.37	0.0109692
3774.01	0.00630629
3783.65	0.0107916
3793.29	0.0104767
3802.94	0.00512255
3812.58	0.00977829
3822.22	0.00642753
3831.86	0.00858208
3841.51	0.0111381
3851.15	0.00874071
3860.79	0.00818968
3870.43	0.0143799
3880.07	0.0084072
3889.72	0.0100104
3899.36	0.00385239
3909	0.0132863
3918.64	0.00544564
3928.29	0.00463126
3937.93	0.0120345
3947.57	0.00678855
3957.21	0.0100953
3966.86	0.00557633
3976.5	0.0128156
3986.14	0.0110075
3995.78	0.0116211
