Measurement: Infrared, Infrared Data Processed
Mineral: Gearksutite
Rruff sample: R050657
Ideal chemistry: CaAlF_4_(OH)H_2_O
Locality: Jamestown, Colorado, USA
Source: University of Arizona Mineral Museum
Description: White fragment
Measured chemistry: (Ca_0.98_Sr_0.02_)Al_1.00_F_4.00_(OH)Â·H_2_O
x	intensity
399.193	0.0876534
408.835	0.069694
418.477	0.08018
428.12	0.0715516
437.762	0.0478264
447.404	0.0561553
457.047	0.0812158
466.689	0.0938684
476.331	0.0742599
485.974	0.0841541
495.616	0.124193
505.258	0.190152
514.901	0.264728
524.543	0.317089
534.185	0.323016
543.828	0.291386
553.47	0.245568
563.112	0.211973
572.755	0.192729
582.397	0.168074
592.039	0.145458
601.682	0.127229
611.324	0.119515
620.966	0.119701
630.609	0.115389
640.251	0.10513
649.893	0.0897073
659.536	0.0755097
669.178	0.0681455
678.82	0.0698121
688.463	0.0866959
698.105	0.101319
707.747	0.101813
717.39	0.0927367
727.032	0.0831424
736.674	0.0812955
746.317	0.0915078
755.959	0.101111
765.601	0.0911586
775.244	0.0711635
784.886	0.0519193
794.528	0.0371417
804.171	0.027549
813.813	0.0218499
823.455	0.0197398
833.098	0.0193497
842.74	0.020517
852.382	0.0237423
862.025	0.0305398
871.667	0.0452852
881.309	0.0743441
890.952	0.110073
900.594	0.119675
910.236	0.104257
919.879	0.081547
929.521	0.0686624
939.163	0.0693403
948.806	0.0703775
958.448	0.0611409
968.09	0.0451492
977.733	0.0304222
987.375	0.0209213
997.017	0.0157616
1006.66	0.0124886
1016.3	0.0106859
1025.94	0.00907486
1035.59	0.008079
1045.23	0.0078316
1054.87	0.00720083
1064.51	0.00685203
1074.16	0.00612447
1083.8	0.00530342
1093.44	0.00505614
1103.08	0.00462358
1112.72	0.00440195
1122.37	0.00381362
1132.01	0.00343828
1141.65	0.00304035
1151.3	0.002557
1160.94	0.00228926
1170.58	0.00188901
1180.22	0.00163612
1189.86	0.00134686
1199.51	0.00121011
1209.15	0.000995973
1218.79	0.00095221
1228.43	0.000762178
1238.08	0.000816762
1247.72	0.000816664
1257.36	0.000700236
1267	0.00106638
1276.64	0.00104937
1286.29	0.00114543
1295.93	0.00142395
1305.57	0.00129483
1315.21	0.00143404
1324.86	0.00127291
1334.5	0.00158222
1344.14	0.00151609
1353.78	0.00141845
1363.43	0.00202517
1373.07	0.00213317
1382.71	0.00233062
1392.35	0.00279796
1401.99	0.00332554
1411.64	0.00391086
1421.28	0.00483554
1430.92	0.0055664
1440.57	0.00667279
1450.21	0.00755136
1459.85	0.00829397
1469.49	0.00850243
1479.13	0.00848914
1488.78	0.00855892
1498.42	0.00863554
1508.06	0.00898866
1517.7	0.008764
1527.35	0.00936522
1536.99	0.0107395
1546.63	0.0122885
1556.27	0.013713
1565.91	0.0128105
1575.56	0.0114113
1585.2	0.00870159
1594.84	0.00747384
1604.48	0.00672349
1614.13	0.00654371
1623.77	0.00633917
1633.41	0.00644186
1643.05	0.00653894
1652.7	0.00794116
1662.34	0.00712494
1671.98	0.00697886
1681.62	0.00652292
1691.27	0.00574862
1700.91	0.00586603
1710.55	0.00465314
1720.19	0.0046465
1729.84	0.00399069
1739.48	0.00348572
1749.12	0.00355506
1758.76	0.00366167
1768.4	0.00386416
1778.05	0.00316047
1787.69	0.00249762
1797.33	0.00203017
1806.97	0.00180843
1816.62	0.00129501
1826.26	0.00176059
1835.9	0.00159177
1845.54	0.00195877
1855.18	0.00206736
1864.83	0.00160316
1874.47	0.00162857
1884.11	0.00128847
1893.75	0.00155466
1903.4	0.00148872
1913.04	0.00156351
1922.68	0.00115382
1932.32	0.00171097
1941.97	0.00223477
1951.61	0.00124053
1961.25	0.00168098
1970.89	0.00193203
1980.54	0.00455513
1990.18	0.00293474
1999.82	0.0017471
2009.46	0.000326644
2019.11	0.0023065
2028.75	0.00246216
2038.39	0.00302806
2048.03	0.00284106
2057.67	0.00279692
2067.32	0.00249008
2076.96	0.00363492
2086.6	0.00257294
2096.24	0.00246788
2105.89	0.00298355
2115.53	0.00273719
2125.17	0.000799844
2134.81	-0.000187004
2144.45	4.46233e-05
2154.1	-0.00270558
2163.74	0.00222513
2173.38	0.00052476
2183.02	0.00312694
2192.67	0.00195387
2202.31	0.00140624
2211.95	0.00188028
2221.59	0.00225422
2231.24	0.000925674
2240.88	0.00147556
2250.52	0.00142314
2260.16	0.00143224
2269.8	0.00136062
2279.45	0.00176529
2289.09	0.00220579
2298.73	0.00156248
2308.38	0.00174363
2318.02	0.00251005
2327.66	0.00176121
2337.3	0.00179783
2346.94	0.00132284
2356.59	0.00158866
2366.23	0.00151177
2375.87	0.000414162
2385.51	5.16946e-05
2395.16	0.000342738
2404.8	5.3228e-05
2414.44	0.000580322
2424.08	0.000865478
2433.72	0.000789671
2443.37	0.000745
2453.01	0.00134413
2462.65	0.00114044
2472.29	0.000624554
2481.94	0.00111282
2491.58	0.00103434
2501.22	0.000808503
2510.86	0.000652694
2520.51	0.000646259
2530.15	0.000856195
2539.79	0.000766652
2549.43	0.00105473
2559.07	0.0010863
2568.72	0.000824274
2578.36	0.00136124
2588	0.00206653
2597.64	0.00206
2607.29	0.00178666
2616.93	0.00248442
2626.57	0.00193752
2636.21	0.00262617
2645.86	0.00267505
2655.5	0.00230229
2665.14	0.00194102
2674.78	0.00204748
2684.43	0.00234181
2694.07	0.00226695
2703.71	0.00270921
2713.35	0.00295869
2722.99	0.00309855
2732.64	0.00340251
2742.28	0.00384862
2751.92	0.00423754
2761.56	0.0045392
2771.21	0.00496149
2780.85	0.00514253
2790.49	0.00586775
2800.13	0.00623433
2809.78	0.00625224
2819.42	0.00726915
2829.06	0.00839456
2838.7	0.00876869
2848.34	0.00955275
2857.99	0.0102184
2867.63	0.0107529
2877.27	0.0113715
2886.91	0.0122897
2896.56	0.013444
2906.2	0.0149239
2915.84	0.0156379
2925.48	0.0166592
2935.13	0.0168159
2944.77	0.0169953
2954.41	0.0186855
2964.05	0.0192006
2973.7	0.0203122
2983.34	0.0216742
2992.98	0.023461
3002.62	0.0254503
3012.26	0.0282701
3021.91	0.0319525
3031.55	0.0367401
3041.19	0.0408261
3050.83	0.0462164
3060.48	0.0512809
3070.12	0.0572655
3079.76	0.0628752
3089.4	0.0681236
3099.05	0.0701071
3108.69	0.0692533
3118.33	0.0650437
3127.97	0.0588087
3137.61	0.0516771
3147.26	0.0467026
3156.9	0.0421724
3166.54	0.0378861
3176.18	0.0343431
3185.83	0.0319237
3195.47	0.0297793
3205.11	0.0283065
3214.75	0.0268397
3224.4	0.025684
3234.04	0.0242081
3243.68	0.0233142
3253.32	0.0233478
3262.97	0.0222197
3272.61	0.0209873
3282.25	0.0195057
3291.89	0.0192891
3301.53	0.0194328
3311.18	0.0185292
3320.82	0.0182246
3330.46	0.0173941
3340.1	0.0169052
3349.75	0.0160902
3359.39	0.0163752
3369.03	0.0158219
3378.67	0.0163345
3388.32	0.0168536
3397.96	0.017812
3407.6	0.017975
3417.24	0.0203489
3426.89	0.0228674
3436.53	0.0281019
3446.17	0.0349879
3455.81	0.0457102
3465.45	0.0612472
3475.1	0.0823136
3484.74	0.111898
3494.38	0.140476
3504.02	0.128285
3513.67	0.108821
3523.31	0.105336
3532.95	0.136082
3542.59	0.139833
3552.24	0.0796777
3561.88	0.030676
3571.52	0.0108535
3581.16	0.00527023
3590.8	0.00570709
3600.45	0.0117029
3610.09	0.00775116
3619.73	0.00255011
3629.37	-0.000211516
3639.02	-0.00377913
3648.66	-0.00272685
3658.3	-0.00398102
3667.94	-0.00491453
3677.59	-0.00486707
3687.23	-0.0045848
3696.87	-0.00516673
3706.51	-0.00605953
3716.16	-0.0063503
3725.8	-0.00488842
3735.44	-0.00444962
3745.08	-0.00437448
3754.72	-0.00535212
3764.37	-0.00633751
3774.01	-0.00587635
3783.65	-0.00698167
3793.29	-0.0069738
3802.94	-0.00519338
3812.58	-0.00739011
3822.22	-0.00613438
3831.86	-0.00623183
3841.51	-0.0067198
3851.15	-0.00522577
3860.79	-0.00725609
3870.43	-0.00592297
3880.07	-0.00547685
3889.72	-0.00655124
3899.36	-0.00639888
3909	-0.00563194
3918.64	-0.00680444
3928.29	-0.00705088
3937.93	-0.00674162
3947.57	-0.00641597
3957.21	-0.00690053
3966.86	-0.00589593
3976.5	-0.00647755
3986.14	-0.0069907
3995.78	-0.00648456
