Measurement: Infrared, Infrared Data Processed
Mineral: Gearksutite
Rruff sample: R050657
Ideal chemistry: CaAlF_4_(OH)H_2_O
Locality: Jamestown, Colorado, USA
Source: University of Arizona Mineral Museum
Description: White fragment
Measured chemistry: (Ca_0.98_Sr_0.02_)Al_1.00_F_4.00_(OH)Â·H_2_O
x	intensity
399.193	0.0635692
408.835	0.0710129
418.477	0.0695454
428.12	0.0642638
437.762	0.0487986
447.404	0.0507819
457.047	0.0778984
466.689	0.087736
476.331	0.0664537
485.974	0.0762985
495.616	0.10941
505.258	0.165217
514.901	0.2288
524.543	0.2737
534.185	0.284807
543.828	0.26191
553.47	0.22404
563.112	0.193755
572.755	0.175321
582.397	0.154992
592.039	0.132633
601.682	0.116538
611.324	0.109706
620.966	0.111533
630.609	0.106572
640.251	0.0980291
649.893	0.0837408
659.536	0.0699568
669.178	0.0624884
678.82	0.0638025
688.463	0.079473
698.105	0.0931295
707.747	0.0943098
717.39	0.0850487
727.032	0.0760872
736.674	0.074379
746.317	0.0834871
755.959	0.0927158
765.601	0.0839469
775.244	0.0650721
784.886	0.0474884
794.528	0.0335814
804.171	0.0246624
813.813	0.0193109
823.455	0.0171516
833.098	0.0173926
842.74	0.0180844
852.382	0.0211026
862.025	0.0270674
871.667	0.0407704
881.309	0.0673818
890.952	0.100926
900.594	0.109874
910.236	0.0959773
919.879	0.0748452
929.521	0.0629277
939.163	0.0636716
948.806	0.0649592
958.448	0.0559025
968.09	0.0409955
977.733	0.0272422
987.375	0.0185523
997.017	0.0132814
1006.66	0.0107635
1016.3	0.00885147
1025.94	0.00710728
1035.59	0.00629596
1045.23	0.00570307
1054.87	0.00517286
1064.51	0.00510908
1074.16	0.00396557
1083.8	0.00363146
1093.44	0.00326411
1103.08	0.00339297
1112.72	0.00303354
1122.37	0.00264297
1132.01	0.00223489
1141.65	0.00186967
1151.3	0.00219085
1160.94	0.000956839
1170.58	0.000743218
1180.22	0.000535164
1189.86	0.000124401
1199.51	4.97625e-05
1209.15	-0.00022411
1218.79	-0.000178747
1228.43	-0.00018362
1238.08	-0.000141755
1247.72	-0.000466715
1257.36	-0.000310289
1267	3.23262e-05
1276.64	0.000101446
1286.29	-0.000218768
1295.93	-5.745e-05
1305.57	-0.000830049
1315.21	-5.28145e-05
1324.86	-0.000150594
1334.5	0.000147174
1344.14	0.000313846
1353.78	0.000117131
1363.43	0.000289105
1373.07	0.000742536
1382.71	0.00112319
1392.35	0.00173335
1401.99	0.00153677
1411.64	0.00254549
1421.28	0.0033264
1430.92	0.00391151
1440.57	0.00514491
1450.21	0.00575415
1459.85	0.00619247
1469.49	0.00673927
1479.13	0.00626982
1488.78	0.00624943
1498.42	0.00602276
1508.06	0.00586657
1517.7	0.00661016
1527.35	0.00684617
1536.99	0.00820562
1546.63	0.00948664
1556.27	0.0102823
1565.91	0.0103044
1575.56	0.00817554
1585.2	0.00609623
1594.84	0.00497236
1604.48	0.00463434
1614.13	0.0040084
1623.77	0.00398127
1633.41	0.00400703
1643.05	0.00407805
1652.7	0.00441415
1662.34	0.0049764
1671.98	0.00469451
1681.62	0.00418582
1691.27	0.00347993
1700.91	0.00300372
1710.55	0.0026415
1720.19	0.00241733
1729.84	0.0029377
1739.48	0.00173533
1749.12	0.00190326
1758.76	0.00168717
1768.4	0.00184518
1778.05	0.000748451
1787.69	0.000341318
1797.33	-0.000254666
1806.97	-0.000151283
1816.62	-0.00107856
1826.26	-0.0015332
1835.9	1.85536e-05
1845.54	-0.000605831
1855.18	-0.0012141
1864.83	-0.00183202
1874.47	-0.00127775
1884.11	-0.00041473
1893.75	-0.00165945
1903.4	-0.00208194
1913.04	-0.00423666
1922.68	-0.00142841
1932.32	-0.00204914
1941.97	-0.00356118
1951.61	-0.00314668
1961.25	-0.0011105
1970.89	-0.00470718
1980.54	-0.00102764
1990.18	-0.000696337
1999.82	-0.00421397
2009.46	-0.0014084
2019.11	0.00110764
2028.75	-0.00246093
2038.39	-0.00117799
2048.03	-0.00168864
2057.67	-0.000511605
2067.32	-0.00103086
2076.96	-0.00119568
2086.6	-0.00102328
2096.24	-0.00333933
2105.89	-0.00169734
2115.53	-0.00285813
2125.17	-0.00303344
2134.81	-0.00345293
2144.45	-0.000819537
2154.1	-0.00843509
2163.74	-0.00302653
2173.38	-0.0041879
2183.02	0.00219631
2192.67	0.00101956
2202.31	-0.000654111
2211.95	-0.00169358
2221.59	-0.00171198
2231.24	0.00132358
2240.88	-0.000384016
2250.52	-0.000144578
2260.16	0.00235912
2269.8	-4.51237e-05
2279.45	0.00112365
2289.09	0.000461559
2298.73	0.000384409
2308.38	-6.81465e-05
2318.02	0.00151851
2327.66	-4.43458e-05
2337.3	-0.000310581
2346.94	-0.000806246
2356.59	-0.00065803
2366.23	-0.00139251
2375.87	-0.00195927
2385.51	-0.00260975
2395.16	-0.00142118
2404.8	-0.00184123
2414.44	-0.0018114
2424.08	-0.000136535
2433.72	-0.000450838
2443.37	-0.00152077
2453.01	-0.000800776
2462.65	-0.00137656
2472.29	0.000141972
2481.94	-0.000338761
2491.58	-0.000514202
2501.22	-0.00101757
2510.86	0.000132122
2520.51	0.000886615
2530.15	0.000485842
2539.79	-2.64239e-05
2549.43	1.90911e-05
2559.07	-0.000212131
2568.72	-0.000806655
2578.36	-0.0014874
2588	0.000170829
2597.64	-0.000397834
2607.29	-0.000127677
2616.93	0.000883479
2626.57	0.000906418
2636.21	0.00192345
2645.86	0.00173582
2655.5	0.00117787
2665.14	0.00111603
2674.78	0.000109104
2684.43	0.000909559
2694.07	0.000761503
2703.71	0.00212957
2713.35	0.00218526
2722.99	0.00255338
2732.64	0.00274473
2742.28	0.00186769
2751.92	0.00380827
2761.56	0.00346642
2771.21	0.0042172
2780.85	0.00350431
2790.49	0.00370379
2800.13	0.00468614
2809.78	0.00372275
2819.42	0.0044176
2829.06	0.00583309
2838.7	0.00803145
2848.34	0.00965071
2857.99	0.00804026
2867.63	0.00842166
2877.27	0.0104671
2886.91	0.0106068
2896.56	0.0119615
2906.2	0.0123582
2915.84	0.0157512
2925.48	0.0169155
2935.13	0.0170017
2944.77	0.0171891
2954.41	0.016859
2964.05	0.0187019
2973.7	0.0178436
2983.34	0.0192265
2992.98	0.0206503
3002.62	0.0226729
3012.26	0.0234169
3021.91	0.0272253
3031.55	0.0306217
3041.19	0.0352304
3050.83	0.0392433
3060.48	0.0443027
3070.12	0.0487777
3079.76	0.0540283
3089.4	0.0577871
3099.05	0.0608022
3108.69	0.0586357
3118.33	0.0570881
3127.97	0.0522077
3137.61	0.0465866
3147.26	0.0399251
3156.9	0.0357425
3166.54	0.0333501
3176.18	0.0311314
3185.83	0.0283331
3195.47	0.0274199
3205.11	0.0251617
3214.75	0.0239834
3224.4	0.0216036
3234.04	0.0215823
3243.68	0.0207448
3253.32	0.0192486
3262.97	0.0173984
3272.61	0.0207183
3282.25	0.0187689
3291.89	0.0178537
3301.53	0.0168503
3311.18	0.0176379
3320.82	0.0167867
3330.46	0.0165265
3340.1	0.0160778
3349.75	0.0175626
3359.39	0.0136404
3369.03	0.0150746
3378.67	0.0122488
3388.32	0.0137336
3397.96	0.0155952
3407.6	0.0170001
3417.24	0.0192456
3426.89	0.0186071
3436.53	0.0216388
3446.17	0.0275436
3455.81	0.0396622
3465.45	0.0485188
3475.1	0.0674036
3484.74	0.0892221
3494.38	0.118676
3504.02	0.106428
3513.67	0.0899144
3523.31	0.0877078
3532.95	0.113015
3542.59	0.122759
3552.24	0.0686661
3561.88	0.0250644
3571.52	0.0101356
3581.16	0.00362758
3590.8	0.00272042
3600.45	0.0101627
3610.09	0.00580053
3619.73	0.00464263
3629.37	-0.00398241
3639.02	-0.00453892
3648.66	-0.00791693
3658.3	-0.00645305
3667.94	-0.00713117
3677.59	-0.00559374
3687.23	-0.0078128
3696.87	-0.00145626
3706.51	-0.00531719
3716.16	-0.00937073
3725.8	-0.00644129
3735.44	-0.00597612
3745.08	-0.0086433
3754.72	-0.00991049
3764.37	-0.00628533
3774.01	-0.00713196
3783.65	-0.00594807
3793.29	-0.00408291
3802.94	-0.00472504
3812.58	-0.00876904
3822.22	-0.00902526
3831.86	-0.00980022
3841.51	-0.00801214
3851.15	-0.0053045
3860.79	-0.0109047
3870.43	-0.00934189
3880.07	-0.00501778
3889.72	-0.00613472
3899.36	-0.0127008
3909	-0.00701459
3918.64	-0.0069256
3928.29	-0.00983305
3937.93	-0.00801286
3947.57	-0.00926375
3957.21	-0.0104735
3966.86	-0.00717548
3976.5	-0.0104748
3986.14	-0.00772824
3995.78	-0.00671894
