Measurement: Infrared, Infrared Data Processed
Mineral: Gedrite
Rruff sample: R050339
Ideal chemistry: [box]Mg_2_(Mg_3_Al_2_)(Si_6_Al_2_)O_22_(OH)_2_
Locality: Bamble, Telemark, Norway
Source: California Institute of Technology
Description: Dark gray cleavage fragment
Measured chemistry: ([box]_0.61_Na_0.39_)(Mg_4.55_Fe^2+^_1.40_Al_0.91_Ti_0.07_Ca_0.07_)_Σ7_(Si_6.56_Al_1.44_)_Σ8_O_22_(OH)_2_
x	intensity
399.193	0.240526
408.835	0.232495
418.477	0.245541
428.12	0.250402
437.762	0.253196
447.404	0.256307
457.047	0.249425
466.689	0.236915
476.331	0.217057
485.974	0.204941
495.616	0.197358
505.258	0.177446
514.901	0.156998
524.543	0.146699
534.185	0.134339
543.828	0.120675
553.47	0.102202
563.112	0.0835385
572.755	0.0709893
582.397	0.0628052
592.039	0.0572988
601.682	0.0499631
611.324	0.0485958
620.966	0.0532875
630.609	0.0580249
640.251	0.0643943
649.893	0.0720019
659.536	0.07862
669.178	0.0806488
678.82	0.0855814
688.463	0.0959574
698.105	0.0949938
707.747	0.0883547
717.39	0.0865123
727.032	0.0813603
736.674	0.082125
746.317	0.0864293
755.959	0.0939346
765.601	0.0993622
775.244	0.118371
784.886	0.11428
794.528	0.112356
804.171	0.0922868
813.813	0.0722736
823.455	0.0785728
833.098	0.0894726
842.74	0.0974858
852.382	0.107663
862.025	0.12238
871.667	0.141295
881.309	0.159389
890.952	0.177925
900.594	0.193262
910.236	0.205324
919.879	0.213072
929.521	0.227619
939.163	0.24478
948.806	0.260267
958.448	0.27116
968.09	0.275548
977.733	0.266621
987.375	0.246306
997.017	0.22763
1006.66	0.217093
1016.3	0.208301
1025.94	0.197787
1035.59	0.187668
1045.23	0.183567
1054.87	0.181341
1064.51	0.171263
1074.16	0.164921
1083.8	0.169516
1093.44	0.165545
1103.08	0.152307
1112.72	0.133262
1122.37	0.112906
1132.01	0.0946675
1141.65	0.0776279
1151.3	0.0610422
1160.94	0.053357
1170.58	0.0450476
1180.22	0.0375665
1189.86	0.0334766
1199.51	0.0276468
1209.15	0.0203284
1218.79	0.0130073
1228.43	0.00986684
1238.08	0.0081616
1247.72	0.00700638
1257.36	0.00622692
1267	0.0056055
1276.64	0.00580069
1286.29	0.00526558
1295.93	0.00458081
1305.57	0.00407811
1315.21	0.00391158
1324.86	0.00361654
1334.5	0.00339565
1344.14	0.00360779
1353.78	0.00360018
1363.43	0.00370523
1373.07	0.00412556
1382.71	0.00463963
1392.35	0.00498519
1401.99	0.00529659
1411.64	0.00644038
1421.28	0.00687631
1430.92	0.00729046
1440.57	0.00752077
1450.21	0.00770554
1459.85	0.00771721
1469.49	0.00732466
1479.13	0.00688781
1488.78	0.00624644
1498.42	0.00660305
1508.06	0.00632296
1517.7	0.00579028
1527.35	0.0051635
1536.99	0.00524486
1546.63	0.00491992
1556.27	0.00464627
1565.91	0.00467714
1575.56	0.00461365
1585.2	0.00475019
1594.84	0.00551776
1604.48	0.00595888
1614.13	0.00596707
1623.77	0.00603403
1633.41	0.00601058
1643.05	0.00611234
1652.7	0.0061962
1662.34	0.0054184
1671.98	0.00531292
1681.62	0.00533935
1691.27	0.00489109
1700.91	0.0051531
1710.55	0.00543394
1720.19	0.00491691
1729.84	0.00441761
1739.48	0.0039306
1749.12	0.00310358
1758.76	0.00377691
1768.4	0.00370076
1778.05	0.003054
1787.69	0.0033958
1797.33	0.00327022
1806.97	0.00355409
1816.62	0.00297655
1826.26	0.00297583
1835.9	0.00240498
1845.54	0.00235769
1855.18	0.00183068
1864.83	0.00253975
1874.47	0.00257793
1884.11	0.0017473
1893.75	0.00226523
1903.4	0.0016434
1913.04	0.00214333
1922.68	-0.000951356
1932.32	0.000432413
1941.97	-0.0001943
1951.61	-0.00397221
1961.25	-0.00563604
1970.89	-0.00578414
1980.54	-0.0030997
1990.18	-0.00284423
1999.82	-0.00532766
2009.46	-0.00303543
2019.11	-0.00778255
2028.75	-0.00319839
2038.39	-0.00600028
2048.03	0.000973639
2057.67	-0.0016314
2067.32	0.00164685
2076.96	-0.00117815
2086.6	2.86234e-05
2096.24	0.000621019
2105.89	-2.65147e-05
2115.53	0.00127249
2125.17	-0.000813715
2134.81	-0.0019299
2144.45	-0.0059633
2154.1	-0.0100681
2163.74	-0.00212367
2173.38	-0.00466533
2183.02	-0.00576584
2192.67	-0.00317446
2202.31	-0.00348394
2211.95	-0.00255723
2221.59	0.00157802
2231.24	0.00103601
2240.88	0.000209109
2250.52	0.00389734
2260.16	0.00203585
2269.8	0.0024445
2279.45	0.00557022
2289.09	0.00579036
2298.73	0.00632527
2308.38	0.0060909
2318.02	0.00686231
2327.66	0.00629458
2337.3	0.00672511
2346.94	0.00607861
2356.59	0.00679946
2366.23	0.00598699
2375.87	0.00518023
2385.51	0.00579794
2395.16	0.00422989
2404.8	0.00507426
2414.44	0.00525194
2424.08	0.00689072
2433.72	0.00454353
2443.37	0.00729298
2453.01	0.006227
2462.65	0.00662885
2472.29	0.00547552
2481.94	0.00723738
2491.58	0.00665562
2501.22	0.00481204
2510.86	0.00635394
2520.51	0.00645269
2530.15	0.00682394
2539.79	0.00697985
2549.43	0.00755105
2559.07	0.00663366
2568.72	0.00771932
2578.36	0.00575104
2588	0.00702191
2597.64	0.00859764
2607.29	0.00636058
2616.93	0.00774704
2626.57	0.00840481
2636.21	0.00695357
2645.86	0.00818147
2655.5	0.00883008
2665.14	0.00776787
2674.78	0.00769016
2684.43	0.00761063
2694.07	0.00787816
2703.71	0.00778637
2713.35	0.00877832
2722.99	0.00876496
2732.64	0.00808596
2742.28	0.00903775
2751.92	0.00871482
2761.56	0.00839854
2771.21	0.00864715
2780.85	0.0086787
2790.49	0.00802528
2800.13	0.00833445
2809.78	0.00970399
2819.42	0.00778229
2829.06	0.00875536
2838.7	0.00933425
2848.34	0.00913076
2857.99	0.00939728
2867.63	0.00712198
2877.27	0.00886154
2886.91	0.0102909
2896.56	0.0113489
2906.2	0.010831
2915.84	0.00992378
2925.48	0.00981366
2935.13	0.00805541
2944.77	0.00954357
2954.41	0.00812642
2964.05	0.00683102
2973.7	0.00820923
2983.34	0.0104817
2992.98	0.00929413
3002.62	0.00939928
3012.26	0.00979942
3021.91	0.0123327
3031.55	0.0122922
3041.19	0.0111903
3050.83	0.0140951
3060.48	0.0103629
3070.12	0.0140349
3079.76	0.0126664
3089.4	0.0112004
3099.05	0.0135101
3108.69	0.0126497
3118.33	0.0134483
3127.97	0.0128884
3137.61	0.011081
3147.26	0.0124424
3156.9	0.0138416
3166.54	0.0142671
3176.18	0.0124865
3185.83	0.0145327
3195.47	0.0163092
3205.11	0.0155413
3214.75	0.0130241
3224.4	0.017456
3234.04	0.0148107
3243.68	0.0177756
3253.32	0.0151412
3262.97	0.0149553
3272.61	0.0142676
3282.25	0.0157803
3291.89	0.0158317
3301.53	0.0142371
3311.18	0.0163544
3320.82	0.0167869
3330.46	0.0181563
3340.1	0.0157743
3349.75	0.0142884
3359.39	0.017455
3369.03	0.016584
3378.67	0.015976
3388.32	0.0196994
3397.96	0.0179879
3407.6	0.0180318
3417.24	0.0148025
3426.89	0.018012
3436.53	0.0177474
3446.17	0.0178911
3455.81	0.0159363
3465.45	0.0152391
3475.1	0.0195291
3484.74	0.0152287
3494.38	0.0155901
3504.02	0.0144549
3513.67	0.0195911
3523.31	0.0160802
3532.95	0.0164114
3542.59	0.0177433
3552.24	0.0151278
3561.88	0.0152786
3571.52	0.0132572
3581.16	0.0153496
3590.8	0.0136053
3600.45	0.010932
3610.09	0.016607
3619.73	0.0146206
3629.37	0.01785
3639.02	0.0148236
3648.66	0.0136918
3658.3	0.0149535
3667.94	0.0172316
3677.59	0.0112883
3687.23	0.013286
3696.87	0.0078656
3706.51	0.00877754
3716.16	0.00642619
3725.8	0.00451026
3735.44	0.0110987
3745.08	0.00582601
3754.72	0.0105711
3764.37	0.010698
3774.01	0.0142176
3783.65	0.0110099
3793.29	0.00736373
3802.94	0.00776157
3812.58	0.00857292
3822.22	0.0091752
3831.86	0.007653
3841.51	0.00979025
3851.15	0.0133151
3860.79	0.0122483
3870.43	0.0100184
3880.07	0.00642493
3889.72	0.0118141
3899.36	0.00953213
3909	0.0114585
3918.64	0.0111291
3928.29	0.0124556
3937.93	0.0131686
3947.57	0.00931263
3957.21	0.0125484
3966.86	0.0127863
3976.5	0.00807556
3986.14	0.00610465
3995.78	0.0140883
