Measurement: Infrared, Infrared Data Processed
Mineral: Germanite
Rruff sample: R050439
Ideal chemistry: Cu^1+^_8_Cu^2+^_5_Fe^3+^_2_Ge^4+^_2_S^2-^_16_
Locality: Tsumeb mine, Tsumeb, Otavi District, Oshikoto, Namibia
Source: University of Arizona Mineral Museum
Description: Black with purple hints, massive
Measured chemistry: (Cu_11.61_Fe^2+^_0.87_Zn_0.52_)_Σ=13_Fe_2.00_(Ge_1.71_As_0.29_)_Σ=2_S_16.00_ ; = dark-gray phase. (Cu_10.59_Zn_0.41_)_Σ=11_Fe_4.00_(Ge_1.46_As_0.54_)_Σ=2_S_16.00_ = lighter-gray phase. Lightest phase is PbS.
x	intensity
399.193	0.326582
408.835	0.265346
418.477	0.305226
428.12	0.338171
437.762	0.341342
447.404	0.353365
457.047	0.358315
466.689	0.366585
476.331	0.37106
485.974	0.375854
495.616	0.386581
505.258	0.391702
514.901	0.397965
524.543	0.405959
534.185	0.414282
543.828	0.416986
553.47	0.425143
563.112	0.42875
572.755	0.434005
582.397	0.439
592.039	0.444397
601.682	0.445095
611.324	0.449738
620.966	0.454027
630.609	0.45494
640.251	0.461013
649.893	0.460021
659.536	0.462285
669.178	0.466191
678.82	0.467931
688.463	0.4715
698.105	0.474126
707.747	0.477873
717.39	0.480675
727.032	0.484378
736.674	0.486839
746.317	0.488561
755.959	0.493392
765.601	0.495847
775.244	0.499645
784.886	0.502321
794.528	0.504427
804.171	0.508162
813.813	0.511046
823.455	0.513761
833.098	0.517282
842.74	0.518401
852.382	0.521234
862.025	0.524913
871.667	0.527732
881.309	0.530718
890.952	0.534436
900.594	0.536132
910.236	0.541322
919.879	0.544595
929.521	0.547887
939.163	0.551911
948.806	0.555346
958.448	0.559513
968.09	0.562626
977.733	0.565878
987.375	0.569646
997.017	0.572943
1006.66	0.576283
1016.3	0.579971
1025.94	0.583062
1035.59	0.58771
1045.23	0.590089
1054.87	0.593126
1064.51	0.594508
1074.16	0.597484
1083.8	0.599364
1093.44	0.600636
1103.08	0.603378
1112.72	0.605794
1122.37	0.606892
1132.01	0.609816
1141.65	0.61384
1151.3	0.61567
1160.94	0.615348
1170.58	0.61585
1180.22	0.616617
1189.86	0.619058
1199.51	0.622359
1209.15	0.623331
1218.79	0.625068
1228.43	0.627999
1238.08	0.630359
1247.72	0.632792
1257.36	0.635828
1267	0.638393
1276.64	0.640103
1286.29	0.643282
1295.93	0.647029
1305.57	0.649203
1315.21	0.65196
1324.86	0.655073
1334.5	0.657709
1344.14	0.660095
1353.78	0.662412
1363.43	0.665268
1373.07	0.668895
1382.71	0.670686
1392.35	0.674046
1401.99	0.6767
1411.64	0.679048
1421.28	0.680966
1430.92	0.6838
1440.57	0.685613
1450.21	0.686838
1459.85	0.687876
1469.49	0.689336
1479.13	0.691383
1488.78	0.693148
1498.42	0.695489
1508.06	0.697442
1517.7	0.699595
1527.35	0.702513
1536.99	0.704375
1546.63	0.706233
1556.27	0.709022
1565.91	0.709903
1575.56	0.712722
1585.2	0.714028
1594.84	0.717171
1604.48	0.717807
1614.13	0.719871
1623.77	0.722318
1633.41	0.724896
1643.05	0.725129
1652.7	0.72765
1662.34	0.728384
1671.98	0.730657
1681.62	0.731264
1691.27	0.734004
1700.91	0.735724
1710.55	0.738314
1720.19	0.74013
1729.84	0.742631
1739.48	0.743371
1749.12	0.742639
1758.76	0.743926
1768.4	0.745806
1778.05	0.746626
1787.69	0.747903
1797.33	0.750327
1806.97	0.750961
1816.62	0.75325
1826.26	0.752166
1835.9	0.754058
1845.54	0.754254
1855.18	0.755585
1864.83	0.757608
1874.47	0.755629
1884.11	0.759912
1893.75	0.759394
1903.4	0.758865
1913.04	0.761325
1922.68	0.760815
1932.32	0.757834
1941.97	0.756933
1951.61	0.757985
1961.25	0.75172
1970.89	0.750764
1980.54	0.754985
1990.18	0.755246
1999.82	0.75752
2009.46	0.750016
2019.11	0.757697
2028.75	0.754917
2038.39	0.753976
2048.03	0.768135
2057.67	0.775051
2067.32	0.778048
2076.96	0.785837
2086.6	0.788386
2096.24	0.7844
2105.89	0.789865
2115.53	0.794636
2125.17	0.792073
2134.81	0.785664
2144.45	0.774279
2154.1	0.768405
2163.74	0.77805
2173.38	0.781043
2183.02	0.785241
2192.67	0.794428
2202.31	0.794328
2211.95	0.800584
2221.59	0.803494
2231.24	0.806248
2240.88	0.809513
2250.52	0.810029
2260.16	0.815989
2269.8	0.819394
2279.45	0.824931
2289.09	0.827144
2298.73	0.832281
2308.38	0.834821
2318.02	0.837092
2327.66	0.842477
2337.3	0.84229
2346.94	0.845043
2356.59	0.845347
2366.23	0.846773
2375.87	0.84707
2385.51	0.848826
2395.16	0.849126
2404.8	0.851088
2414.44	0.848405
2424.08	0.849009
2433.72	0.851934
2443.37	0.852464
2453.01	0.855829
2462.65	0.859552
2472.29	0.857004
2481.94	0.856692
2491.58	0.859635
2501.22	0.86177
2510.86	0.863085
2520.51	0.864366
2530.15	0.86809
2539.79	0.869554
2549.43	0.868902
2559.07	0.868648
2568.72	0.875943
2578.36	0.877734
2588	0.880333
2597.64	0.881931
2607.29	0.882151
2616.93	0.88448
2626.57	0.887179
2636.21	0.887731
2645.86	0.890756
2655.5	0.894588
2665.14	0.897149
2674.78	0.896252
2684.43	0.897554
2694.07	0.900473
2703.71	0.901051
2713.35	0.903729
2722.99	0.905736
2732.64	0.907328
2742.28	0.907001
2751.92	0.90736
2761.56	0.910172
2771.21	0.911664
2780.85	0.913792
2790.49	0.916971
2800.13	0.917412
2809.78	0.91875
2819.42	0.9208
2829.06	0.922562
2838.7	0.923938
2848.34	0.924588
2857.99	0.921873
2867.63	0.928142
2877.27	0.928335
2886.91	0.930308
2896.56	0.932332
2906.2	0.934318
2915.84	0.934162
2925.48	0.93098
2935.13	0.929553
2944.77	0.932255
2954.41	0.93394
2964.05	0.933734
2973.7	0.935468
2983.34	0.939723
2992.98	0.942121
3002.62	0.941555
3012.26	0.941945
3021.91	0.945035
3031.55	0.9429
3041.19	0.945545
3050.83	0.948859
3060.48	0.952175
3070.12	0.954598
3079.76	0.953808
3089.4	0.956373
3099.05	0.958223
3108.69	0.958037
3118.33	0.962327
3127.97	0.965549
3137.61	0.965431
3147.26	0.964757
3156.9	0.968134
3166.54	0.969327
3176.18	0.969249
3185.83	0.973607
3195.47	0.972929
3205.11	0.976483
3214.75	0.978975
3224.4	0.978433
3234.04	0.977379
3243.68	0.97791
3253.32	0.980507
3262.97	0.982321
3272.61	0.980833
3282.25	0.986759
3291.89	0.989069
3301.53	0.984335
3311.18	0.989113
3320.82	0.989185
3330.46	0.989484
3340.1	0.994103
3349.75	0.994707
3359.39	0.995786
3369.03	0.997901
3378.67	0.999633
3388.32	0.994899
3397.96	0.997794
3407.6	1.00132
3417.24	0.998081
3426.89	1.00061
3436.53	1.00483
3446.17	1.00361
3455.81	1.00308
3465.45	1.01203
3475.1	1.00809
3484.74	1.01371
3494.38	1.012
3504.02	1.01694
3513.67	1.01321
3523.31	1.01833
3532.95	1.01496
3542.59	1.01401
3552.24	1.01697
3561.88	1.01737
3571.52	1.02339
3581.16	1.0281
3590.8	1.02274
3600.45	1.03262
3610.09	1.03204
3619.73	1.03265
3629.37	1.03583
3639.02	1.03174
3648.66	1.03377
3658.3	1.0381
3667.94	1.03944
3677.59	1.04204
3687.23	1.04681
3696.87	1.04694
3706.51	1.04542
3716.16	1.05041
3725.8	1.05881
3735.44	1.05981
3745.08	1.06027
3754.72	1.05726
3764.37	1.0677
3774.01	1.06679
3783.65	1.06639
3793.29	1.06632
3802.94	1.07186
3812.58	1.07521
3822.22	1.07524
3831.86	1.07342
3841.51	1.08354
3851.15	1.07522
3860.79	1.08247
3870.43	1.08405
3880.07	1.07936
3889.72	1.09478
3899.36	1.0858
3909	1.08402
3918.64	1.0887
3928.29	1.10077
3937.93	1.09507
3947.57	1.10795
3957.21	1.10648
3966.86	1.10047
3976.5	1.10782
3986.14	1.10841
3995.78	1.10998
