Measurement: Infrared, Infrared Data Processed
Mineral: Gillespite
Rruff sample: R060060
Ideal chemistry: BaFe^2+^Si_4_O_10_
Locality: Incline, California, USA
Source: University of Arizona Mineral Museum
Description: Salmon-red platelets associated with white sanbornite
Measured chemistry: Ba_1.00_(Fe^2+^_0.99_Fe^3+^_0.01_)_Σ=1_(Si_3.99_Al_0.01_)_Σ=4_O_10_
x	intensity
399.193	0.176922
408.835	0.177812
418.477	0.206647
428.12	0.226344
437.762	0.215305
447.404	0.171621
457.047	0.190968
466.689	0.209147
476.331	0.1719
485.974	0.13087
495.616	0.101767
505.258	0.110926
514.901	0.100563
524.543	0.090689
534.185	0.0910812
543.828	0.0886513
553.47	0.0860241
563.112	0.0631083
572.755	0.065781
582.397	0.097076
592.039	0.102497
601.682	0.0928538
611.324	0.0634877
620.966	0.0444505
630.609	0.0493623
640.251	0.0753646
649.893	0.125681
659.536	0.144684
669.178	0.0941722
678.82	0.0524612
688.463	0.0339203
698.105	0.0269026
707.747	0.0241292
717.39	0.0233408
727.032	0.0235912
736.674	0.0245678
746.317	0.0280138
755.959	0.0337981
765.601	0.0289019
775.244	0.0289462
784.886	0.0306026
794.528	0.0314374
804.171	0.0313115
813.813	0.0306106
823.455	0.0302721
833.098	0.0321565
842.74	0.0353055
852.382	0.0401949
862.025	0.0462461
871.667	0.0545394
881.309	0.0643454
890.952	0.0765568
900.594	0.0918023
910.236	0.111018
919.879	0.132137
929.521	0.155488
939.163	0.18024
948.806	0.20889
958.448	0.235244
968.09	0.258667
977.733	0.284608
987.375	0.305127
997.017	0.310942
1006.66	0.285301
1016.3	0.257261
1025.94	0.243162
1035.59	0.265947
1045.23	0.272085
1054.87	0.257554
1064.51	0.230507
1074.16	0.198126
1083.8	0.161108
1093.44	0.127526
1103.08	0.107473
1112.72	0.0951408
1122.37	0.0818425
1132.01	0.0750878
1141.65	0.0809382
1151.3	0.104551
1160.94	0.128841
1170.58	0.0976607
1180.22	0.0796775
1189.86	0.0767598
1199.51	0.0767631
1209.15	0.0762425
1218.79	0.0742753
1228.43	0.0707083
1238.08	0.0624782
1247.72	0.0499731
1257.36	0.0346205
1267	0.0194978
1276.64	0.0102174
1286.29	0.00673595
1295.93	0.00491984
1305.57	0.00373061
1315.21	0.00397104
1324.86	0.00295916
1334.5	0.00356229
1344.14	0.00308143
1353.78	0.00322904
1363.43	0.00332118
1373.07	0.00409074
1382.71	0.00396385
1392.35	0.00381105
1401.99	0.00416008
1411.64	0.0046822
1421.28	0.0056255
1430.92	0.00626662
1440.57	0.0057671
1450.21	0.00573505
1459.85	0.00577518
1469.49	0.00547546
1479.13	0.00529422
1488.78	0.00562563
1498.42	0.00492807
1508.06	0.00501612
1517.7	0.00581012
1527.35	0.00557216
1536.99	0.00562392
1546.63	0.00607411
1556.27	0.0063328
1565.91	0.00539001
1575.56	0.00577948
1585.2	0.00626921
1594.84	0.00661783
1604.48	0.00621405
1614.13	0.00619716
1623.77	0.00652888
1633.41	0.00657125
1643.05	0.00659828
1652.7	0.00578918
1662.34	0.00565079
1671.98	0.00594878
1681.62	0.00607853
1691.27	0.00542822
1700.91	0.00537237
1710.55	0.0052008
1720.19	0.0057065
1729.84	0.00636089
1739.48	0.00574056
1749.12	0.00624152
1758.76	0.00607665
1768.4	0.00623153
1778.05	0.00666081
1787.69	0.00680233
1797.33	0.00602043
1806.97	0.00633563
1816.62	0.00560591
1826.26	0.00575677
1835.9	0.00677392
1845.54	0.00615517
1855.18	0.00706499
1864.83	0.00496786
1874.47	0.00652408
1884.11	0.0076228
1893.75	0.0063369
1903.4	0.00531101
1913.04	0.00494057
1922.68	0.00252371
1932.32	0.00503314
1941.97	0.00878307
1951.61	0.00655714
1961.25	0.00530725
1970.89	0.000411577
1980.54	0.00588932
1990.18	0.00372686
1999.82	0.00327827
2009.46	-0.00028439
2019.11	0.000658688
2028.75	0.00102598
2038.39	0.00868714
2048.03	0.00330751
2057.67	0.00312472
2067.32	0.00814749
2076.96	0.00424462
2086.6	0.00700206
2096.24	0.00513406
2105.89	0.00651066
2115.53	0.00708656
2125.17	0.00432886
2134.81	0.00525085
2144.45	0.00129416
2154.1	0.000868667
2163.74	0.00349243
2173.38	0.00604616
2183.02	0.00741872
2192.67	0.00623355
2202.31	0.00528647
2211.95	0.0061685
2221.59	0.00581363
2231.24	0.00951528
2240.88	0.0104004
2250.52	0.00580982
2260.16	0.00747883
2269.8	0.00855126
2279.45	0.00967245
2289.09	0.00798903
2298.73	0.0100708
2308.38	0.00994289
2318.02	0.00784945
2327.66	0.0081664
2337.3	0.00832187
2346.94	0.00794944
2356.59	0.00714993
2366.23	0.00682894
2375.87	0.00788106
2385.51	0.00907066
2395.16	0.00909739
2404.8	0.00925323
2414.44	0.0107384
2424.08	0.00833321
2433.72	0.0102825
2443.37	0.00765539
2453.01	0.0103217
2462.65	0.0095832
2472.29	0.0086209
2481.94	0.00927786
2491.58	0.0105136
2501.22	0.0106606
2510.86	0.011063
2520.51	0.0109047
2530.15	0.0124735
2539.79	0.0130311
2549.43	0.0102765
2559.07	0.0110645
2568.72	0.0137225
2578.36	0.0136044
2588	0.0147942
2597.64	0.0128324
2607.29	0.0153728
2616.93	0.0140949
2626.57	0.0155032
2636.21	0.014278
2645.86	0.0147903
2655.5	0.0146806
2665.14	0.0129318
2674.78	0.0150369
2684.43	0.0138637
2694.07	0.0145446
2703.71	0.0150482
2713.35	0.0146395
2722.99	0.0147046
2732.64	0.0156685
2742.28	0.015199
2751.92	0.0157614
2761.56	0.0162221
2771.21	0.0151861
2780.85	0.0164075
2790.49	0.0155757
2800.13	0.0168657
2809.78	0.017498
2819.42	0.016904
2829.06	0.0175912
2838.7	0.0191334
2848.34	0.0170385
2857.99	0.0182042
2867.63	0.0196143
2877.27	0.0198117
2886.91	0.0207408
2896.56	0.0188531
2906.2	0.0208953
2915.84	0.0202735
2925.48	0.0219879
2935.13	0.0220423
2944.77	0.0202812
2954.41	0.0218325
2964.05	0.0211631
2973.7	0.0203966
2983.34	0.0205874
2992.98	0.021583
3002.62	0.0219738
3012.26	0.0193234
3021.91	0.0198329
3031.55	0.0200864
3041.19	0.0219725
3050.83	0.0211395
3060.48	0.0226358
3070.12	0.0203949
3079.76	0.0219549
3089.4	0.0223134
3099.05	0.0239898
3108.69	0.023732
3118.33	0.0215733
3127.97	0.0208318
3137.61	0.0231539
3147.26	0.0219543
3156.9	0.0243944
3166.54	0.0236245
3176.18	0.0255145
3185.83	0.0244586
3195.47	0.027308
3205.11	0.0244417
3214.75	0.0263051
3224.4	0.0249003
3234.04	0.0259357
3243.68	0.0255598
3253.32	0.0248488
3262.97	0.0288059
3272.61	0.0261845
3282.25	0.0271576
3291.89	0.0242206
3301.53	0.0250385
3311.18	0.0273145
3320.82	0.0257034
3330.46	0.0229142
3340.1	0.0259974
3349.75	0.0270123
3359.39	0.0255753
3369.03	0.0234013
3378.67	0.0257929
3388.32	0.0263499
3397.96	0.0264037
3407.6	0.0249089
3417.24	0.0230821
3426.89	0.0255011
3436.53	0.0259811
3446.17	0.0241071
3455.81	0.0251463
3465.45	0.0273385
3475.1	0.023433
3484.74	0.0265338
3494.38	0.026873
3504.02	0.0261456
3513.67	0.0245119
3523.31	0.0255522
3532.95	0.0245422
3542.59	0.0213219
3552.24	0.0269268
3561.88	0.023056
3571.52	0.0244556
3581.16	0.0268175
3590.8	0.0278678
3600.45	0.0230116
3610.09	0.0230988
3619.73	0.0238184
3629.37	0.0215391
3639.02	0.0190181
3648.66	0.0270823
3658.3	0.0165331
3667.94	0.0261397
3677.59	0.0250517
3687.23	0.0190464
3696.87	0.0232996
3706.51	0.0282309
3716.16	0.0221663
3725.8	0.0179648
3735.44	0.0198331
3745.08	0.0221826
3754.72	0.0254764
3764.37	0.0212716
3774.01	0.0264594
3783.65	0.025505
3793.29	0.0165485
3802.94	0.0191091
3812.58	0.0209253
3822.22	0.0236319
3831.86	0.02035
3841.51	0.023209
3851.15	0.0250441
3860.79	0.0181232
3870.43	0.0226443
3880.07	0.0239132
3889.72	0.0190307
3899.36	0.0187126
3909	0.0224739
3918.64	0.0200145
3928.29	0.014992
3937.93	0.023166
3947.57	0.0209744
3957.21	0.0191189
3966.86	0.0165277
3976.5	0.0203515
3986.14	0.0185107
3995.78	0.0212395
