Measurement: Infrared, Infrared Data Processed
Mineral: Glaucophane
Rruff sample: R050333
Ideal chemistry: [box]Na_2_(Mg_3_Al_2_)Si_8_O_22_(OH)_2_
Locality: Cazadero, Sonoma County, California, USA
Source: California Institute of Technology
Description: Blackish-blue fibrous aggregate
Measured chemistry: [box](Na_1.96_Ca_0.02_[box]_0.02_)_Σ=2_(Mg_1.89_Fe^2+^_1.08_Mn_0.03_)_Σ=3_(Al_1.52_Fe^3+^_0.48_)_Σ=2_Si_8.00_O_22_(OH)_2_
x	intensity
399.193	0.418913
408.835	0.385507
418.477	0.419201
428.12	0.409996
437.762	0.397503
447.404	0.342502
457.047	0.353067
466.689	0.381455
476.331	0.343683
485.974	0.306717
495.616	0.265193
505.258	0.23239
514.901	0.219348
524.543	0.183345
534.185	0.150201
543.828	0.145102
553.47	0.163114
563.112	0.136819
572.755	0.114641
582.397	0.0905554
592.039	0.0629511
601.682	0.0459935
611.324	0.0406612
620.966	0.042227
630.609	0.0489047
640.251	0.0665681
649.893	0.0727125
659.536	0.0742667
669.178	0.106067
678.82	0.111749
688.463	0.121726
698.105	0.119817
707.747	0.073079
717.39	0.0584503
727.032	0.0691657
736.674	0.0638751
746.317	0.0538626
755.959	0.0580288
765.601	0.0709873
775.244	0.0918501
784.886	0.171228
794.528	0.20032
804.171	0.0803723
813.813	0.0618025
823.455	0.0664613
833.098	0.0804049
842.74	0.102394
852.382	0.134311
862.025	0.177705
871.667	0.241033
881.309	0.303408
890.952	0.286605
900.594	0.299221
910.236	0.343958
919.879	0.376882
929.521	0.456529
939.163	0.521404
948.806	0.555689
958.448	0.555135
968.09	0.53046
977.733	0.48052
987.375	0.41194
997.017	0.383466
1006.66	0.377602
1016.3	0.365607
1025.94	0.335111
1035.59	0.296129
1045.23	0.259573
1054.87	0.228796
1064.51	0.177959
1074.16	0.143416
1083.8	0.148642
1093.44	0.155581
1103.08	0.173698
1112.72	0.176351
1122.37	0.155478
1132.01	0.121652
1141.65	0.0868809
1151.3	0.0735106
1160.94	0.0610631
1170.58	0.033816
1180.22	0.0202495
1189.86	0.0139844
1199.51	0.0104657
1209.15	0.00786402
1218.79	0.00592842
1228.43	0.00509856
1238.08	0.0041205
1247.72	0.00342677
1257.36	0.00307769
1267	0.00324502
1276.64	0.00339113
1286.29	0.00319337
1295.93	0.00325272
1305.57	0.00289056
1315.21	0.0032814
1324.86	0.00337081
1334.5	0.0033554
1344.14	0.00379773
1353.78	0.00402091
1363.43	0.00389365
1373.07	0.00454639
1382.71	0.00502153
1392.35	0.00626686
1401.99	0.00660617
1411.64	0.00715733
1421.28	0.00701604
1430.92	0.00654619
1440.57	0.00599009
1450.21	0.00500612
1459.85	0.00381002
1469.49	0.00407619
1479.13	0.00556092
1488.78	0.00587174
1498.42	0.00640015
1508.06	0.00683107
1517.7	0.00640219
1527.35	0.00656413
1536.99	0.0065401
1546.63	0.00657575
1556.27	0.00730133
1565.91	0.00597679
1575.56	0.00622802
1585.2	0.00610476
1594.84	0.00673078
1604.48	0.0072976
1614.13	0.00753897
1623.77	0.00797067
1633.41	0.00879273
1643.05	0.00933653
1652.7	0.00987917
1662.34	0.0081835
1671.98	0.00686269
1681.62	0.00614573
1691.27	0.00380065
1700.91	0.00271377
1710.55	-0.000145817
1720.19	0.000569502
1729.84	-0.000650432
1739.48	-0.00423942
1749.12	-0.00409987
1758.76	-7.21992e-05
1768.4	0.00146949
1778.05	0.00191413
1787.69	0.00164238
1797.33	0.00111771
1806.97	0.00107688
1816.62	-0.000234894
1826.26	0.000769775
1835.9	-0.00041184
1845.54	-0.000696138
1855.18	-0.0012438
1864.83	-0.000916557
1874.47	-0.000685702
1884.11	-0.00153311
1893.75	-0.00203421
1903.4	-0.00222498
1913.04	-0.00244048
1922.68	-0.00451689
1932.32	-0.00529025
1941.97	-0.00658109
1951.61	-0.00787733
1961.25	-0.00905417
1970.89	-0.00961846
1980.54	-0.0100364
1990.18	-0.00895423
1999.82	-0.0104953
2009.46	-0.0107715
2019.11	-0.0113376
2028.75	-0.0147497
2038.39	-0.0110145
2048.03	-0.00952026
2057.67	-0.00800589
2067.32	-0.00706441
2076.96	-0.00576302
2086.6	-0.00533228
2096.24	-0.0028372
2105.89	-0.00421385
2115.53	-0.00427194
2125.17	-0.00572347
2134.81	-0.00653328
2144.45	-0.00949054
2154.1	-0.00928138
2163.74	-0.00494799
2173.38	-0.0114956
2183.02	-0.00706443
2192.67	-0.00472921
2202.31	-0.00379907
2211.95	-0.00779328
2221.59	-0.00373812
2231.24	-0.00476745
2240.88	-0.00406053
2250.52	-0.00192139
2260.16	-2.82325e-05
2269.8	-0.000584718
2279.45	0.000112769
2289.09	0.00360455
2298.73	0.00243664
2308.38	0.00219563
2318.02	0.00284158
2327.66	0.00313241
2337.3	0.00311765
2346.94	0.00238461
2356.59	0.00390379
2366.23	0.00240625
2375.87	0.00282053
2385.51	0.00207114
2395.16	0.00174503
2404.8	0.00217651
2414.44	0.00228489
2424.08	0.00147659
2433.72	0.00359139
2443.37	0.00219511
2453.01	0.00334961
2462.65	0.00456262
2472.29	0.00312698
2481.94	0.00331347
2491.58	0.00235707
2501.22	0.00187627
2510.86	0.00348678
2520.51	0.00414045
2530.15	0.0029445
2539.79	0.00150839
2549.43	0.00260043
2559.07	0.00353485
2568.72	0.00302882
2578.36	0.0026313
2588	0.00438734
2597.64	0.00380116
2607.29	0.00265632
2616.93	0.00490201
2626.57	0.00379511
2636.21	0.00421471
2645.86	0.00508017
2655.5	0.00421278
2665.14	0.00333361
2674.78	0.00346709
2684.43	0.00328816
2694.07	0.00310529
2703.71	0.00493008
2713.35	0.00387144
2722.99	0.00462663
2732.64	0.00407904
2742.28	0.00398832
2751.92	0.00522143
2761.56	0.00563939
2771.21	0.00586829
2780.85	0.00676785
2790.49	0.00598922
2800.13	0.00679713
2809.78	0.00707348
2819.42	0.00496455
2829.06	0.00577884
2838.7	0.00582701
2848.34	0.00580186
2857.99	0.00758752
2867.63	0.00995629
2877.27	0.00928697
2886.91	0.00847707
2896.56	0.00841645
2906.2	0.0069882
2915.84	0.0071119
2925.48	0.0106819
2935.13	0.0121455
2944.77	0.0120018
2954.41	0.00926855
2964.05	0.0126693
2973.7	0.0121565
2983.34	0.0118781
2992.98	0.0127753
3002.62	0.0144779
3012.26	0.0118612
3021.91	0.013545
3031.55	0.0116878
3041.19	0.012339
3050.83	0.0129608
3060.48	0.0126082
3070.12	0.0125316
3079.76	0.014116
3089.4	0.0150032
3099.05	0.0166535
3108.69	0.0143868
3118.33	0.013225
3127.97	0.0154928
3137.61	0.0161933
3147.26	0.017189
3156.9	0.0181382
3166.54	0.0172651
3176.18	0.0166051
3185.83	0.0184975
3195.47	0.0183963
3205.11	0.0206462
3214.75	0.0180085
3224.4	0.0207863
3234.04	0.019537
3243.68	0.0229898
3253.32	0.0209739
3262.97	0.0220448
3272.61	0.0212583
3282.25	0.0217529
3291.89	0.0241244
3301.53	0.0211223
3311.18	0.0234953
3320.82	0.0233274
3330.46	0.0254938
3340.1	0.0251745
3349.75	0.0254202
3359.39	0.0249647
3369.03	0.0239641
3378.67	0.0250141
3388.32	0.02174
3397.96	0.0245443
3407.6	0.0217242
3417.24	0.0235152
3426.89	0.0237924
3436.53	0.0247782
3446.17	0.0249463
3455.81	0.0237373
3465.45	0.0239471
3475.1	0.0209198
3484.74	0.0234427
3494.38	0.0220391
3504.02	0.0190514
3513.67	0.0221152
3523.31	0.0164242
3532.95	0.0210476
3542.59	0.0168648
3552.24	0.0170504
3561.88	0.0187542
3571.52	0.0162304
3581.16	0.0135822
3590.8	0.014077
3600.45	0.0137222
3610.09	0.00954102
3619.73	0.0161593
3629.37	0.0176151
3639.02	0.0149155
3648.66	0.0264433
3658.3	0.0139612
3667.94	0.0119745
3677.59	0.00798401
3687.23	0.00439141
3696.87	0.00262164
3706.51	0.00456955
3716.16	0.00484349
3725.8	0.00714007
3735.44	0.00306298
3745.08	0.00606227
3754.72	0.00410843
3764.37	0.00387479
3774.01	0.000811764
3783.65	0.00406631
3793.29	0.00430929
3802.94	0.00480203
3812.58	0.00431511
3822.22	0.00110789
3831.86	0.000562551
3841.51	0.00107004
3851.15	0.00376882
3860.79	0.00289959
3870.43	0.00575063
3880.07	0.00571877
3889.72	0.00506298
3899.36	0.00323286
3909	0.00696931
3918.64	0.00682719
3928.29	0.00116898
3937.93	0.0046998
3947.57	0.00291681
3957.21	0.00878269
3966.86	0.00628538
3976.5	0.0026336
3986.14	0.00321086
3995.78	0.000968883
