Measurement: Infrared, Infrared Data Processed
Mineral: Gmelinite-Na
Rruff sample: R050371
Ideal chemistry: Na_4_(Si_8_Al_4_)O_24_11H_2_O
Locality: Cairns Bay, Flinders Range, Australia
Source: Eugene Schlepp
Description: Colorless to pink crystals lining a basalt vug
Measured chemistry: Na_3.81_(Si_8.13_Al_3.88_)O_24_Â·4.27H_2_O
x	intensity
399.193	0.186088
408.835	0.192752
418.477	0.187269
428.12	0.175803
437.762	0.165332
447.404	0.15094
457.047	0.127549
466.689	0.104146
476.331	0.0882925
485.974	0.081869
495.616	0.0776819
505.258	0.0801544
514.901	0.0852755
524.543	0.0805499
534.185	0.0586349
543.828	0.0494944
553.47	0.0523612
563.112	0.0557709
572.755	0.0641335
582.397	0.0734059
592.039	0.0806556
601.682	0.0766208
611.324	0.0704342
620.966	0.066497
630.609	0.0584594
640.251	0.0495432
649.893	0.0459875
659.536	0.045011
669.178	0.048258
678.82	0.0541905
688.463	0.0612484
698.105	0.0638543
707.747	0.0653
717.39	0.0673949
727.032	0.0705667
736.674	0.070463
746.317	0.0638048
755.959	0.0582746
765.601	0.0573441
775.244	0.055898
784.886	0.0484888
794.528	0.0368728
804.171	0.0295322
813.813	0.0258934
823.455	0.0245835
833.098	0.02486
842.74	0.0254905
852.382	0.0272541
862.025	0.029058
871.667	0.0324662
881.309	0.0365087
890.952	0.0402698
900.594	0.0464938
910.236	0.0556883
919.879	0.0665259
929.521	0.0828721
939.163	0.106318
948.806	0.140105
958.448	0.185607
968.09	0.238578
977.733	0.276415
987.375	0.292148
997.017	0.303601
1006.66	0.305396
1016.3	0.297768
1025.94	0.280574
1035.59	0.257351
1045.23	0.226876
1054.87	0.187978
1064.51	0.150105
1074.16	0.123407
1083.8	0.108604
1093.44	0.0979756
1103.08	0.089328
1112.72	0.0801077
1122.37	0.0711609
1132.01	0.0623726
1141.65	0.0548709
1151.3	0.0479677
1160.94	0.0406133
1170.58	0.0329501
1180.22	0.0254572
1189.86	0.020748
1199.51	0.0164744
1209.15	0.0136687
1218.79	0.0115991
1228.43	0.00951606
1238.08	0.00853432
1247.72	0.00774556
1257.36	0.00702027
1267	0.00657633
1276.64	0.00687648
1286.29	0.00672715
1295.93	0.00633346
1305.57	0.00618336
1315.21	0.00623238
1324.86	0.00612334
1334.5	0.00633605
1344.14	0.00625767
1353.78	0.00617784
1363.43	0.00634946
1373.07	0.00669656
1382.71	0.00669777
1392.35	0.00699668
1401.99	0.00715478
1411.64	0.00798252
1421.28	0.00782907
1430.92	0.00853499
1440.57	0.0086906
1450.21	0.00846083
1459.85	0.00850282
1469.49	0.00826656
1479.13	0.00782427
1488.78	0.00739823
1498.42	0.00719269
1508.06	0.00727646
1517.7	0.00704429
1527.35	0.00704009
1536.99	0.00758857
1546.63	0.0076186
1556.27	0.00754491
1565.91	0.0085104
1575.56	0.00901625
1585.2	0.00961604
1594.84	0.0113153
1604.48	0.0133219
1614.13	0.017217
1623.77	0.0234328
1633.41	0.0301356
1643.05	0.032232
1652.7	0.0306118
1662.34	0.0238767
1671.98	0.0187072
1681.62	0.0139955
1691.27	0.0111075
1700.91	0.008788
1710.55	0.00683828
1720.19	0.00618778
1729.84	0.00558724
1739.48	0.00515167
1749.12	0.00491933
1758.76	0.00423027
1768.4	0.00423467
1778.05	0.0035462
1787.69	0.00334101
1797.33	0.00342183
1806.97	0.00370068
1816.62	0.00306387
1826.26	0.00306148
1835.9	0.00224947
1845.54	0.00360145
1855.18	0.00243067
1864.83	0.00290001
1874.47	0.00278961
1884.11	0.00213033
1893.75	0.00216778
1903.4	0.0015749
1913.04	-0.000274292
1922.68	0.000716429
1932.32	-0.00135555
1941.97	-0.00451899
1951.61	-0.00171247
1961.25	-0.00576069
1970.89	-0.00354679
1980.54	-0.000996173
1990.18	-0.00590656
1999.82	-0.00253526
2009.46	-0.0067836
2019.11	-0.00619259
2028.75	-0.00233229
2038.39	-0.00531616
2048.03	-0.00149051
2057.67	-0.002911
2067.32	-0.00145818
2076.96	-0.00141695
2086.6	0.000699181
2096.24	0.000899774
2105.89	-0.000359906
2115.53	0.0011138
2125.17	-0.0014445
2134.81	-0.00148057
2144.45	-0.00105378
2154.1	-0.00593926
2163.74	0.00150232
2173.38	-0.000561678
2183.02	0.00219827
2192.67	-0.00301934
2202.31	0.0015337
2211.95	0.000265496
2221.59	0.00214865
2231.24	-0.0003412
2240.88	0.00346127
2250.52	0.00298185
2260.16	0.00387841
2269.8	0.0040129
2279.45	0.00442035
2289.09	0.00475535
2298.73	0.00549894
2308.38	0.00625121
2318.02	0.00740787
2327.66	0.00600391
2337.3	0.00709634
2346.94	0.00543811
2356.59	0.00751264
2366.23	0.00734895
2375.87	0.00539078
2385.51	0.00444272
2395.16	0.00409945
2404.8	0.00457955
2414.44	0.00496382
2424.08	0.00607068
2433.72	0.00598834
2443.37	0.00534098
2453.01	0.00614034
2462.65	0.00663262
2472.29	0.00596627
2481.94	0.005481
2491.58	0.00518255
2501.22	0.00591007
2510.86	0.00563411
2520.51	0.00629477
2530.15	0.00644154
2539.79	0.0065322
2549.43	0.00503835
2559.07	0.00557218
2568.72	0.00578121
2578.36	0.00705765
2588	0.00525336
2597.64	0.00571645
2607.29	0.0065665
2616.93	0.00681145
2626.57	0.00536199
2636.21	0.00730304
2645.86	0.00710717
2655.5	0.00548346
2665.14	0.0072273
2674.78	0.00638105
2684.43	0.00564838
2694.07	0.00629826
2703.71	0.00661095
2713.35	0.00764287
2722.99	0.00670092
2732.64	0.0071947
2742.28	0.00742889
2751.92	0.00650676
2761.56	0.00713407
2771.21	0.00847623
2780.85	0.00755415
2790.49	0.00664044
2800.13	0.0069305
2809.78	0.00761015
2819.42	0.00876699
2829.06	0.00879055
2838.7	0.00913592
2848.34	0.0112467
2857.99	0.0130019
2867.63	0.00782488
2877.27	0.00886805
2886.91	0.00971372
2896.56	0.0116168
2906.2	0.0122437
2915.84	0.0148643
2925.48	0.0165946
2935.13	0.0133292
2944.77	0.0114193
2954.41	0.0117958
2964.05	0.0108488
2973.7	0.00995508
2983.34	0.0105186
2992.98	0.012147
3002.62	0.0106397
3012.26	0.0114328
3021.91	0.0138011
3031.55	0.0139612
3041.19	0.0130866
3050.83	0.0131159
3060.48	0.0150382
3070.12	0.0144472
3079.76	0.014584
3089.4	0.0161268
3099.05	0.0165061
3108.69	0.0173512
3118.33	0.0204836
3127.97	0.0207603
3137.61	0.0219078
3147.26	0.0221105
3156.9	0.0217601
3166.54	0.0258477
3176.18	0.0246552
3185.83	0.0266807
3195.47	0.0302549
3205.11	0.0305272
3214.75	0.0316521
3224.4	0.0331086
3234.04	0.0349726
3243.68	0.0372207
3253.32	0.0384317
3262.97	0.0358392
3272.61	0.0387549
3282.25	0.0404832
3291.89	0.0417922
3301.53	0.0382905
3311.18	0.044233
3320.82	0.0393935
3330.46	0.0447935
3340.1	0.0435339
3349.75	0.0501132
3359.39	0.0506167
3369.03	0.0499463
3378.67	0.0497983
3388.32	0.0492155
3397.96	0.0506009
3407.6	0.0466553
3417.24	0.0489786
3426.89	0.0461729
3436.53	0.0479147
3446.17	0.0483536
3455.81	0.0452785
3465.45	0.043546
3475.1	0.0430608
3484.74	0.0407592
3494.38	0.0389956
3504.02	0.0425275
3513.67	0.0372569
3523.31	0.0367959
3532.95	0.0365203
3542.59	0.0331261
3552.24	0.0356078
3561.88	0.034315
3571.52	0.0351139
3581.16	0.033333
3590.8	0.0331144
3600.45	0.0315074
3610.09	0.0328222
3619.73	0.0279884
3629.37	0.02627
3639.02	0.0177083
3648.66	0.0156088
3658.3	0.0081668
3667.94	0.00295358
3677.59	0.00606872
3687.23	0.00386667
3696.87	0.00627233
3706.51	0.00551558
3716.16	0.00742005
3725.8	-0.00131175
3735.44	0.00455544
3745.08	0.00576026
3754.72	0.00619314
3764.37	0.00472894
3774.01	0.00140402
3783.65	0.00207941
3793.29	0.0011195
3802.94	0.00904085
3812.58	0.00844823
3822.22	0.00803583
3831.86	0.00456366
3841.51	0.00758812
3851.15	0.00599101
3860.79	0.00468175
3870.43	0.00657826
3880.07	-0.000137171
3889.72	0.00259484
3899.36	0.00682887
3909	0.00471112
3918.64	0.00474839
3928.29	0.00600703
3937.93	0.0040027
3947.57	0.00443249
3957.21	0.0049783
3966.86	0.00410918
3976.5	0.00577707
3986.14	0.00767096
3995.78	0.00881506
