Measurement: Infrared, Infrared Data Processed
Mineral: Gormanite
Rruff sample: R050093
Ideal chemistry: Fe^2+^_3_Al_4_(PO_4_)_4_(OH)_6_2H_2_O
Locality: Rapid Creek, Yukon Territory, Canada
Source: Rock Currier
Description: Radial aggregates of blue bladed crystals
Measured chemistry: (Fe^2+^_1.85_Mg_1.09_Mn_0.06_)_Σ=3_(Al_3.76_Fe^3+^_0.24_)_Σ=4_(P_1.00_O_4_)_4_((OH_5.65_F_0.35_)_Σ=6_·2H_2_O ; (light phase) : (Fe^2+^_1.53_Mg_1.42_Mn_0.05_)_Σ=3_(Al_3.89_Fe^3+^_0.11_)_Σ=4_(P_1.00_O_4_)_4_((OH_5.60_F_0.40_)_Σ=6_·2H_2_O (dark phase
x	intensity
399.193	0
408.835	0.29947
418.477	0.310867
428.12	0.323166
437.762	0.328274
447.404	0.309115
457.047	0.287521
466.689	0.244839
476.331	0.211631
485.974	0.218224
495.616	0.21038
505.258	0.20397
514.901	0.220875
524.543	0.237944
534.185	0.264665
543.828	0.296259
553.47	0.304381
563.112	0.302474
572.755	0.299465
582.397	0.282461
592.039	0.278026
601.682	0.282769
611.324	0.290282
620.966	0.280307
630.609	0.268243
640.251	0.261983
649.893	0.238748
659.536	0.213211
669.178	0.195689
678.82	0.185756
688.463	0.175083
698.105	0.169436
707.747	0.166965
717.39	0.165598
727.032	0.163678
736.674	0.160009
746.317	0.155078
755.959	0.146486
765.601	0.134486
775.244	0.125495
784.886	0.121062
794.528	0.119147
804.171	0.118498
813.813	0.118969
823.455	0.118176
833.098	0.111108
842.74	0.0990882
852.382	0.0885059
862.025	0.0803331
871.667	0.0746302
881.309	0.0721109
890.952	0.0749809
900.594	0.0826361
910.236	0.0950292
919.879	0.110628
929.521	0.125968
939.163	0.138703
948.806	0.153553
958.448	0.176111
968.09	0.204962
977.733	0.227341
987.375	0.233446
997.017	0.232275
1006.66	0.2268
1016.3	0.209323
1025.94	0.196564
1035.59	0.198248
1045.23	0.201588
1054.87	0.221222
1064.51	0.245232
1074.16	0.235001
1083.8	0.215619
1093.44	0.202389
1103.08	0.188685
1112.72	0.1707
1122.37	0.144568
1132.01	0.121239
1141.65	0.103031
1151.3	0.0824828
1160.94	0.0701193
1170.58	0.068061
1180.22	0.0701103
1189.86	0.0737803
1199.51	0.0763292
1209.15	0.0758254
1218.79	0.0690631
1228.43	0.0526175
1238.08	0.0316433
1247.72	0.0195951
1257.36	0.0171804
1267	0.0177567
1276.64	0.0184883
1286.29	0.0182923
1295.93	0.0180692
1305.57	0.0181415
1315.21	0.0184025
1324.86	0.0187762
1334.5	0.0191349
1344.14	0.0197872
1353.78	0.0201011
1363.43	0.0206427
1373.07	0.0213148
1382.71	0.0210206
1392.35	0.0209511
1401.99	0.0213167
1411.64	0.0214625
1421.28	0.0214044
1430.92	0.0213488
1440.57	0.0213232
1450.21	0.0212331
1459.85	0.020952
1469.49	0.0204511
1479.13	0.0201394
1488.78	0.0198665
1498.42	0.0200562
1508.06	0.0198359
1517.7	0.0196522
1527.35	0.0198307
1536.99	0.0205875
1546.63	0.0207684
1556.27	0.0214798
1565.91	0.0224909
1575.56	0.0231415
1585.2	0.0236956
1594.84	0.0248611
1604.48	0.0257932
1614.13	0.0259926
1623.77	0.0246199
1633.41	0.0237979
1643.05	0.0219277
1652.7	0.0204787
1662.34	0.0195226
1671.98	0.0180452
1681.62	0.0173512
1691.27	0.0162185
1700.91	0.0151523
1710.55	0.0148062
1720.19	0.014284
1729.84	0.0137707
1739.48	0.0122421
1749.12	0.0118677
1758.76	0.0123495
1768.4	0.0123248
1778.05	0.0120278
1787.69	0.0122251
1797.33	0.0116893
1806.97	0.0119594
1816.62	0.0113294
1826.26	0.0106785
1835.9	0.011851
1845.54	0.0108637
1855.18	0.0110384
1864.83	0.0106793
1874.47	0.0104261
1884.11	0.00984828
1893.75	0.00907137
1903.4	0.00939314
1913.04	0.0086106
1922.68	0.00855634
1932.32	0.00845174
1941.97	0.00713314
1951.61	0.00656835
1961.25	0.00438572
1970.89	0.00396588
1980.54	0.00585747
1990.18	0.00538257
1999.82	0.00189135
2009.46	0.00404209
2019.11	0.00184284
2028.75	0.00385584
2038.39	0.0050524
2048.03	0.00616011
2057.67	0.00685235
2067.32	0.00615498
2076.96	0.00779563
2086.6	0.00706644
2096.24	0.00725561
2105.89	0.007514
2115.53	0.00738552
2125.17	0.00422418
2134.81	0.00132051
2144.45	0.00123083
2154.1	-0.00202231
2163.74	0.000441388
2173.38	0.00122987
2183.02	0.00234454
2192.67	0.00508139
2202.31	0.00382244
2211.95	0.00196835
2221.59	0.00426114
2231.24	0.00406139
2240.88	0.00436322
2250.52	0.00466121
2260.16	0.006111
2269.8	0.0058448
2279.45	0.00668828
2289.09	0.00767723
2298.73	0.00688033
2308.38	0.00648437
2318.02	0.00714609
2327.66	0.0064107
2337.3	0.00602502
2346.94	0.00498277
2356.59	0.00569475
2366.23	0.0050306
2375.87	0.00477592
2385.51	0.00528955
2395.16	0.00559452
2404.8	0.00503268
2414.44	0.00604615
2424.08	0.00573537
2433.72	0.00660051
2443.37	0.00647443
2453.01	0.00813877
2462.65	0.00734941
2472.29	0.0075394
2481.94	0.00814545
2491.58	0.00795567
2501.22	0.00810808
2510.86	0.0092605
2520.51	0.00909769
2530.15	0.00838251
2539.79	0.0095902
2549.43	0.0089324
2559.07	0.00980953
2568.72	0.0089838
2578.36	0.00957661
2588	0.010108
2597.64	0.0103753
2607.29	0.0103588
2616.93	0.0104089
2626.57	0.0111586
2636.21	0.0108636
2645.86	0.0113677
2655.5	0.0113709
2665.14	0.0101936
2674.78	0.010002
2684.43	0.0109632
2694.07	0.0105217
2703.71	0.0110938
2713.35	0.0100216
2722.99	0.0109813
2732.64	0.0107196
2742.28	0.0108936
2751.92	0.0114561
2761.56	0.0120696
2771.21	0.0125267
2780.85	0.0121886
2790.49	0.012941
2800.13	0.0129292
2809.78	0.0130686
2819.42	0.013363
2829.06	0.0140395
2838.7	0.0148188
2848.34	0.0152158
2857.99	0.0140046
2867.63	0.0151144
2877.27	0.0171843
2886.91	0.0162628
2896.56	0.0179285
2906.2	0.01832
2915.84	0.0187656
2925.48	0.0176741
2935.13	0.0170173
2944.77	0.018086
2954.41	0.0199959
2964.05	0.0199463
2973.7	0.0197637
2983.34	0.0201215
2992.98	0.0205327
3002.62	0.021977
3012.26	0.0216918
3021.91	0.0231714
3031.55	0.02514
3041.19	0.0238338
3050.83	0.0253471
3060.48	0.026578
3070.12	0.02684
3079.76	0.0284259
3089.4	0.0300723
3099.05	0.0299372
3108.69	0.030819
3118.33	0.0315587
3127.97	0.0322877
3137.61	0.0332087
3147.26	0.0347559
3156.9	0.0365059
3166.54	0.036701
3176.18	0.0372327
3185.83	0.0384655
3195.47	0.0393896
3205.11	0.0409846
3214.75	0.0404595
3224.4	0.0427216
3234.04	0.0417705
3243.68	0.0430747
3253.32	0.0446689
3262.97	0.0440913
3272.61	0.0443251
3282.25	0.0461963
3291.89	0.0452277
3301.53	0.0476396
3311.18	0.0463162
3320.82	0.0450272
3330.46	0.0450566
3340.1	0.0442542
3349.75	0.0432033
3359.39	0.0429251
3369.03	0.042428
3378.67	0.0443217
3388.32	0.0454376
3397.96	0.0496648
3407.6	0.0515314
3417.24	0.0516891
3426.89	0.0490902
3436.53	0.0431318
3446.17	0.0342337
3455.81	0.0284526
3465.45	0.0242758
3475.1	0.0227659
3484.74	0.0189959
3494.38	0.0202423
3504.02	0.0185903
3513.67	0.0157513
3523.31	0.0151977
3532.95	0.0162875
3542.59	0.0142815
3552.24	0.0133989
3561.88	0.0134895
3571.52	0.0124142
3581.16	0.0112542
3590.8	0.0116437
3600.45	0.0147857
3610.09	0.0288721
3619.73	0.0323383
3629.37	0.010026
3639.02	0.0061581
3648.66	0.00315874
3658.3	0.00424311
3667.94	0.00133316
3677.59	0.00394351
3687.23	0.000716817
3696.87	0.000330334
3706.51	0.0015248
3716.16	0.00380447
3725.8	0.00285256
3735.44	0.00116846
3745.08	-4.06557e-06
3754.72	0.00115697
3764.37	0.00271077
3774.01	0.0018599
3783.65	0.000937594
3793.29	0.00336211
3802.94	0.000654585
3812.58	0.0033703
3822.22	0.000956015
3831.86	0.00167967
3841.51	0.00179919
3851.15	0.00228276
3860.79	0.00344781
3870.43	0.00155794
3880.07	0.00195635
3889.72	0.00289731
3899.36	0.00269882
3909	0.00469252
3918.64	0.00345979
3928.29	0.00361853
3937.93	0.00357275
3947.57	0.00484321
3957.21	0.00275509
3966.86	0.000352981
3976.5	0.00172471
3986.14	0.00180537
3995.78	0.00218648
