Measurement: Infrared, Infrared Data Processed
Mineral: Grandidierite
Rruff sample: R050196
Ideal chemistry: MgAl_3_O_2_(BO_3_)SiO_4_
Locality: Madagascar
Source: Marcus Origlieri
Description: Aggregate of anhedral blue-green crystals
Measured chemistry: (Mg_0.829_Fe^2+^_0.169_Mn_0.002_)Al_3_(BO_3_)(SiO_4_)O_2_
x	intensity
50.1401	0.00843834
52.0686	0.00920292
53.9971	0.00799034
55.9255	0.00919962
57.854	0.0115914
59.7825	0.0136616
61.7109	0.0119945
63.6394	0.0120988
65.5679	0.0112818
67.4963	0.0102208
69.4248	0.0115277
71.3533	0.0121667
73.2817	0.0139775
75.2102	0.014629
77.1387	0.0140279
79.0671	0.014814
80.9956	0.0160582
82.9241	0.0168677
84.8525	0.0173018
86.781	0.0172427
88.7095	0.017924
90.6379	0.0176964
92.5664	0.0175646
94.4948	0.0189271
96.4233	0.0192829
98.3518	0.019459
100.28	0.0191657
102.209	0.0192093
104.137	0.0195166
106.066	0.0200944
107.994	0.0207869
109.923	0.0216704
111.851	0.0215159
113.779	0.0214611
115.708	0.0225699
117.636	0.0228694
119.565	0.0232295
121.493	0.0240466
123.422	0.0247466
125.35	0.0252258
127.279	0.0250376
129.207	0.025718
131.136	0.027429
133.064	0.0284645
134.993	0.0292503
136.921	0.0300644
138.85	0.0299955
140.778	0.030817
142.707	0.0314639
144.635	0.031187
146.563	0.0313449
148.492	0.0320297
150.42	0.0324771
152.349	0.0332454
154.277	0.0336925
156.206	0.0339086
158.134	0.0340461
160.063	0.0343538
161.991	0.0346488
163.92	0.0351559
165.848	0.0353126
167.777	0.0357432
169.705	0.0360611
171.633	0.0365007
173.562	0.037569
175.49	0.038354
177.419	0.0383222
179.347	0.0389437
181.276	0.0401558
183.204	0.041115
185.133	0.041855
187.061	0.0424031
188.99	0.0432489
190.918	0.0442823
192.847	0.0450053
194.775	0.0444828
196.704	0.042285
198.632	0.0411369
200.56	0.0420566
202.489	0.0431917
204.417	0.0433157
206.346	0.0437737
208.274	0.0447929
210.203	0.0455515
212.131	0.0454615
214.06	0.0456658
215.988	0.0462622
217.917	0.0470183
219.845	0.0474791
221.774	0.047795
223.702	0.0478655
225.631	0.0482858
227.559	0.0492388
229.488	0.0503177
231.416	0.0511357
233.344	0.0515262
235.273	0.0516819
237.201	0.0521829
239.13	0.0526663
241.058	0.0533399
242.987	0.0541967
244.915	0.054938
246.844	0.0552514
248.772	0.0557791
250.701	0.0561622
252.629	0.0558789
254.558	0.0546414
256.486	0.0533367
258.414	0.0527379
260.343	0.0523745
262.271	0.0513641
264.2	0.0499651
266.128	0.0494784
268.057	0.0501313
269.985	0.0514727
271.914	0.0535751
273.842	0.0554812
275.771	0.0567238
277.699	0.0572761
279.628	0.0576462
281.556	0.0583177
283.485	0.0595737
285.413	0.0608022
287.341	0.061875
289.27	0.0626913
291.198	0.0628915
293.127	0.062392
295.055	0.0613412
296.984	0.0602105
298.912	0.0596427
300.841	0.0595625
302.769	0.0586345
304.698	0.0570435
306.626	0.057498
308.555	0.0596194
310.483	0.0612541
312.411	0.0604252
314.34	0.0580035
316.269	0.0570995
318.197	0.0583439
320.125	0.0603888
322.054	0.0623624
323.982	0.0638248
325.911	0.0649323
327.839	0.0660107
329.768	0.0672255
331.696	0.0686614
333.625	0.0701239
335.553	0.0715805
337.482	0.0725375
339.41	0.0704324
341.339	0.0668105
343.267	0.0665582
345.195	0.0687487
347.124	0.0707994
349.052	0.0720996
350.981	0.0727056
352.909	0.0732231
354.838	0.0732858
356.766	0.072343
358.695	0.0716658
360.623	0.072437
362.552	0.0740192
364.48	0.0757226
366.409	0.077373
368.337	0.0783836
370.265	0.0792805
372.194	0.080639
374.122	0.0812769
376.051	0.0809109
377.979	0.0797046
379.908	0.0775304
381.836	0.0748321
383.765	0.0730449
385.693	0.0718887
387.622	0.070524
389.55	0.0691498
391.479	0.069094
393.407	0.070945
395.336	0.0735087
397.264	0.0754667
399.192	0.0771946
401.121	0.0789253
403.049	0.0804592
404.978	0.0817005
406.906	0.0829332
408.835	0.0837792
410.763	0.0846998
412.692	0.0854648
414.62	0.0863463
416.549	0.0877422
418.477	0.0889375
420.406	0.089737
422.334	0.0906378
424.262	0.0912247
426.191	0.0916165
428.12	0.0913203
430.048	0.0902242
431.976	0.0890721
433.905	0.0884653
435.833	0.0884875
437.762	0.0893695
439.69	0.0907058
441.619	0.0913739
443.547	0.0904074
445.476	0.0886825
447.404	0.087275
449.333	0.0866853
451.261	0.0872143
453.19	0.0883135
455.118	0.0887617
457.046	0.0889476
458.975	0.0883444
460.903	0.0874969
462.832	0.0875698
464.76	0.0885318
466.689	0.0891172
468.617	0.0892885
470.546	0.0898349
472.474	0.0904977
474.403	0.0909331
476.331	0.0918579
478.26	0.0934123
480.188	0.0944359
482.116	0.0956914
484.045	0.0968327
485.974	0.0975289
487.902	0.0979679
489.83	0.0987778
491.759	0.0996091
493.687	0.100202
495.616	0.101184
497.544	0.101883
499.473	0.10208
501.401	0.102028
503.33	0.102017
505.258	0.102066
507.187	0.102288
509.115	0.102372
511.043	0.102637
512.972	0.103702
514.9	0.105135
516.829	0.106271
518.757	0.106878
520.686	0.107433
522.614	0.108121
524.543	0.108825
526.471	0.108967
528.4	0.108784
530.328	0.108613
532.257	0.108757
534.185	0.109347
536.114	0.11008
538.042	0.110751
539.971	0.111302
541.899	0.111759
543.827	0.111663
545.756	0.111774
547.684	0.111422
549.613	0.110598
551.541	0.109248
553.47	0.108177
555.398	0.107795
557.327	0.107366
559.255	0.106782
561.184	0.106885
563.112	0.107984
565.041	0.108929
566.969	0.109029
568.898	0.10807
570.826	0.106502
572.755	0.105042
574.683	0.102846
576.611	0.0998188
578.54	0.0973404
580.468	0.0953805
582.397	0.0931675
584.325	0.0911051
586.254	0.0905186
588.182	0.0903239
590.111	0.0908045
592.039	0.0928523
593.968	0.0960726
595.896	0.0988383
597.824	0.100042
599.753	0.0990767
601.682	0.0969461
603.61	0.0949515
605.538	0.0921936
607.467	0.0898458
609.395	0.0891858
611.324	0.0901894
613.252	0.0917688
615.181	0.0935459
617.109	0.0943787
619.038	0.0936962
620.966	0.0927015
622.894	0.0919394
624.823	0.0919456
626.751	0.0928888
628.68	0.0939117
630.608	0.0941198
632.537	0.0928559
634.465	0.0905626
636.394	0.0887142
638.322	0.0874338
640.251	0.0870455
642.179	0.0873063
644.108	0.0882186
646.036	0.089424
647.965	0.0904486
649.893	0.091891
651.822	0.0933318
653.75	0.0950979
655.678	0.0968997
657.607	0.0987129
659.535	0.100552
661.464	0.1023
663.392	0.103026
665.321	0.103029
667.249	0.10243
669.178	0.100659
671.106	0.0982438
673.035	0.0956988
674.963	0.0926947
676.892	0.0901101
678.82	0.0890123
680.749	0.088773
682.677	0.0887267
684.606	0.0885274
686.534	0.0883725
688.462	0.0888508
690.391	0.0886175
692.319	0.0873959
694.248	0.0876682
696.176	0.0876966
698.105	0.0865382
700.033	0.08482
