Measurement: Infrared, Infrared Data Processed
Mineral: Griphite
Rruff sample: R050618
Ideal chemistry: Ca(Mn^2+^,Na,Li)_6_Fe^2+^Al_2_(PO_4_)_6_(F,OH)_2_
Locality: Pennington County, South Dakota, USA
Source: University of Arizona Mineral Museum
Description: Dark brown massive
Measured chemistry: Ca_1.00_(Mn^2+^_3.76_Na_1.87_Ca_0.24_Li_0.13_)_Σ=6_(Fe^2+^_0.74_Mn^2+^_0.25_Mg_0.01_)_Σ=1_(Al_1.82_Fe^3+^_0.18_)_Σ=2_(P_1.00_O_4_)_6_F_2.00_ ; Li not measured but estimated by difference and charge balance.
x	intensity
399.193	0.183692
408.835	0.158372
418.477	0.160823
428.12	0.155271
437.762	0.148693
447.404	0.142637
457.047	0.136087
466.689	0.125464
476.331	0.109921
485.974	0.103316
495.616	0.10223
505.258	0.104329
514.901	0.10883
524.543	0.113059
534.185	0.127503
543.828	0.153301
553.47	0.181924
563.112	0.155265
572.755	0.138718
582.397	0.123363
592.039	0.113902
601.682	0.114823
611.324	0.103671
620.966	0.111073
630.609	0.124756
640.251	0.114042
649.893	0.0899598
659.536	0.0703937
669.178	0.0585672
678.82	0.0506236
688.463	0.0448981
698.105	0.0418351
707.747	0.0393712
717.39	0.0385232
727.032	0.0381137
736.674	0.0384534
746.317	0.0385398
755.959	0.0397223
765.601	0.0402357
775.244	0.0420061
784.886	0.0433178
794.528	0.0455887
804.171	0.0466773
813.813	0.0491356
823.455	0.0520839
833.098	0.0564514
842.74	0.0626367
852.382	0.0706035
862.025	0.0811211
871.667	0.0960633
881.309	0.115168
890.952	0.137703
900.594	0.166911
910.236	0.197415
919.879	0.225382
929.521	0.248229
939.163	0.266034
948.806	0.278595
958.448	0.285974
968.09	0.289193
977.733	0.289121
987.375	0.290422
997.017	0.291537
1006.66	0.291514
1016.3	0.289726
1025.94	0.281024
1035.59	0.264113
1045.23	0.24523
1054.87	0.227352
1064.51	0.212517
1074.16	0.201691
1083.8	0.19733
1093.44	0.194421
1103.08	0.185297
1112.72	0.169887
1122.37	0.152167
1132.01	0.133639
1141.65	0.11536
1151.3	0.0999535
1160.94	0.0873043
1170.58	0.076011
1180.22	0.0649556
1189.86	0.0539135
1199.51	0.0429084
1209.15	0.0312268
1218.79	0.0228722
1228.43	0.0177926
1238.08	0.0136493
1247.72	0.010953
1257.36	0.00885933
1267	0.00775418
1276.64	0.00714165
1286.29	0.00591036
1295.93	0.00587079
1305.57	0.00555609
1315.21	0.00509342
1324.86	0.00522378
1334.5	0.00530763
1344.14	0.0056803
1353.78	0.00519292
1363.43	0.00609695
1373.07	0.00602208
1382.71	0.00709438
1392.35	0.00799561
1401.99	0.00903116
1411.64	0.0104227
1421.28	0.0115297
1430.92	0.0128062
1440.57	0.0134231
1450.21	0.0141383
1459.85	0.013638
1469.49	0.0137319
1479.13	0.0141385
1488.78	0.0134285
1498.42	0.0126083
1508.06	0.0119676
1517.7	0.0114416
1527.35	0.0113878
1536.99	0.0114883
1546.63	0.0111683
1556.27	0.0116205
1565.91	0.011503
1575.56	0.0119761
1585.2	0.0121417
1594.84	0.0128076
1604.48	0.0127538
1614.13	0.0133247
1623.77	0.0137239
1633.41	0.014174
1643.05	0.0136518
1652.7	0.0137741
1662.34	0.0128008
1671.98	0.0115692
1681.62	0.0110817
1691.27	0.0103622
1700.91	0.0103316
1710.55	0.00867236
1720.19	0.00825805
1729.84	0.00811723
1739.48	0.00616882
1749.12	0.00623702
1758.76	0.00681191
1768.4	0.00852937
1778.05	0.00826158
1787.69	0.00814313
1797.33	0.00794131
1806.97	0.00809322
1816.62	0.00746997
1826.26	0.00796441
1835.9	0.00676717
1845.54	0.0069157
1855.18	0.00831182
1864.83	0.00720395
1874.47	0.00752687
1884.11	0.00731996
1893.75	0.00605347
1903.4	0.00677551
1913.04	0.00529154
1922.68	0.00386104
1932.32	0.00354374
1941.97	0.00352918
1951.61	0.00201242
1961.25	-0.00196273
1970.89	-0.00427037
1980.54	0.00310524
1990.18	0.00418613
1999.82	-0.00137895
2009.46	-0.00152259
2019.11	-0.00253523
2028.75	-0.00331646
2038.39	-0.000543328
2048.03	0.000751251
2057.67	0.0033198
2067.32	0.00288712
2076.96	0.00655272
2086.6	0.00916976
2096.24	0.00608766
2105.89	0.00662296
2115.53	0.00810729
2125.17	0.00685464
2134.81	0.00168849
2144.45	6.27432e-05
2154.1	0.000339373
2163.74	0.00108628
2173.38	-0.00101901
2183.02	0.000995527
2192.67	0.00294295
2202.31	0.00215523
2211.95	0.00662055
2221.59	0.00613427
2231.24	0.00606016
2240.88	0.00747495
2250.52	0.00827983
2260.16	0.00959417
2269.8	0.00902893
2279.45	0.0136767
2289.09	0.0142373
2298.73	0.014489
2308.38	0.016223
2318.02	0.0159263
2327.66	0.0169955
2337.3	0.0171923
2346.94	0.0176249
2356.59	0.0174961
2366.23	0.0179077
2375.87	0.0166345
2385.51	0.0151547
2395.16	0.0159573
2404.8	0.0164172
2414.44	0.0157687
2424.08	0.0155676
2433.72	0.0175361
2443.37	0.0176472
2453.01	0.0181391
2462.65	0.0182269
2472.29	0.0178787
2481.94	0.0190457
2491.58	0.0172688
2501.22	0.0184984
2510.86	0.0201112
2520.51	0.018735
2530.15	0.0191015
2539.79	0.0189572
2549.43	0.0205621
2559.07	0.0186893
2568.72	0.0191793
2578.36	0.0202167
2588	0.0212922
2597.64	0.0195041
2607.29	0.0218601
2616.93	0.021782
2626.57	0.0231955
2636.21	0.0247106
2645.86	0.0245374
2655.5	0.0241998
2665.14	0.0233114
2674.78	0.023653
2684.43	0.0237406
2694.07	0.024713
2703.71	0.0246189
2713.35	0.0252863
2722.99	0.0262431
2732.64	0.0259771
2742.28	0.0250905
2751.92	0.0271317
2761.56	0.0257653
2771.21	0.0283994
2780.85	0.0282232
2790.49	0.0278471
2800.13	0.0287472
2809.78	0.0300333
2819.42	0.0298146
2829.06	0.0300924
2838.7	0.0307398
2848.34	0.028733
2857.99	0.0313928
2867.63	0.0313555
2877.27	0.0320052
2886.91	0.0316382
2896.56	0.0317852
2906.2	0.0323568
2915.84	0.034955
2925.48	0.0337854
2935.13	0.0351816
2944.77	0.0351467
2954.41	0.0349824
2964.05	0.0376805
2973.7	0.0377605
2983.34	0.0369012
2992.98	0.0390303
3002.62	0.03799
3012.26	0.0404971
3021.91	0.0403065
3031.55	0.0383936
3041.19	0.0400558
3050.83	0.0410365
3060.48	0.0414638
3070.12	0.0395647
3079.76	0.0407953
3089.4	0.0403828
3099.05	0.0424632
3108.69	0.0431659
3118.33	0.0406023
3127.97	0.0418133
3137.61	0.0430198
3147.26	0.0426863
3156.9	0.0412733
3166.54	0.0429567
3176.18	0.0440951
3185.83	0.0425856
3195.47	0.0449952
3205.11	0.044167
3214.75	0.0465038
3224.4	0.0452699
3234.04	0.0451648
3243.68	0.0451883
3253.32	0.0443354
3262.97	0.0475198
3272.61	0.0448209
3282.25	0.0456653
3291.89	0.0466442
3301.53	0.047192
3311.18	0.0460647
3320.82	0.0488818
3330.46	0.0488541
3340.1	0.04643
3349.75	0.0471336
3359.39	0.0477651
3369.03	0.0459693
3378.67	0.0481105
3388.32	0.0475783
3397.96	0.047573
3407.6	0.0498103
3417.24	0.0456048
3426.89	0.0488648
3436.53	0.0459822
3446.17	0.0481489
3455.81	0.0485028
3465.45	0.0469281
3475.1	0.0455554
3484.74	0.0448277
3494.38	0.0463632
3504.02	0.0438159
3513.67	0.0423138
3523.31	0.0404945
3532.95	0.0422757
3542.59	0.0441302
3552.24	0.0376738
3561.88	0.0401039
3571.52	0.035533
3581.16	0.0380426
3590.8	0.0345316
3600.45	0.03367
3610.09	0.0321269
3619.73	0.0310637
3629.37	0.0323606
3639.02	0.0301773
3648.66	0.0330865
3658.3	0.0316562
3667.94	0.0314579
3677.59	0.0312872
3687.23	0.0315451
3696.87	0.0303011
3706.51	0.0304969
3716.16	0.0288432
3725.8	0.0326436
3735.44	0.0344812
3745.08	0.0339244
3754.72	0.0361806
3764.37	0.0299458
3774.01	0.0317137
3783.65	0.0325445
3793.29	0.0337705
3802.94	0.0365124
3812.58	0.0365476
3822.22	0.0348785
3831.86	0.0375456
3841.51	0.0343863
3851.15	0.040366
3860.79	0.0363093
3870.43	0.0328417
3880.07	0.0336742
3889.72	0.0392403
3899.36	0.039932
3909	0.0369461
3918.64	0.0395137
3928.29	0.0338737
3937.93	0.0400316
3947.57	0.0376527
3957.21	0.0385971
3966.86	0.03339
3976.5	0.0409815
3986.14	0.0400217
3995.78	0.0406677
