Measurement: Infrared, Infrared Data Processed
Mineral: Grossular
Rruff sample: R040066
Ideal chemistry: Ca_3_Al_2_(SiO_4_)_3_
Locality: Redding, Connecticut, USA
Source: University of Arizona Mineral Museum
Description: Reddish orange coarsely crystalline
Measured chemistry: (Ca_2.90_Fe^2+^_0.08_Mn_0.02_)_Σ=3_(Al_1.87_Fe^3+^_0.13_)_Σ=2_(Si_1.00_O_4_)_3_
x	intensity
399.193	0
408.835	0.223285
418.477	0.264146
428.12	0.27854
437.762	0.279957
447.404	0.255936
457.047	0.225462
466.689	0.207793
476.331	0.187528
485.974	0.154679
495.616	0.130562
505.258	0.113864
514.901	0.0805066
524.543	0.0662778
534.185	0.126443
543.828	0.122512
553.47	0.0764354
563.112	0.0448302
572.755	0.029736
582.397	0.0214005
592.039	0.0190891
601.682	0.0234681
611.324	0.0549377
620.966	0.0479236
630.609	0.0201634
640.251	0.014
649.893	0.0128921
659.536	0.0136441
669.178	0.0155
678.82	0.018056
688.463	0.0207527
698.105	0.0249687
707.747	0.0298746
717.39	0.0375651
727.032	0.0478737
736.674	0.0616094
746.317	0.0794642
755.959	0.101892
765.601	0.126029
775.244	0.152321
784.886	0.180442
794.528	0.209291
804.171	0.23798
813.813	0.26375
823.455	0.282934
833.098	0.288698
842.74	0.268986
852.382	0.25356
862.025	0.233295
871.667	0.173639
881.309	0.122927
890.952	0.129597
900.594	0.231837
910.236	0.259662
919.879	0.214635
929.521	0.17146
939.163	0.138539
948.806	0.112389
958.448	0.0884962
968.09	0.0671432
977.733	0.048778
987.375	0.0319603
997.017	0.0221297
1006.66	0.0175608
1016.3	0.0147003
1025.94	0.013368
1035.59	0.0122452
1045.23	0.0109866
1054.87	0.0104374
1064.51	0.0098033
1074.16	0.00903342
1083.8	0.00836265
1093.44	0.00771285
1103.08	0.00712471
1112.72	0.00684534
1122.37	0.00658428
1132.01	0.00626087
1141.65	0.00592569
1151.3	0.00491693
1160.94	0.0044196
1170.58	0.00400209
1180.22	0.00374367
1189.86	0.00362016
1199.51	0.00340608
1209.15	0.00345605
1218.79	0.00309515
1228.43	0.00335111
1238.08	0.0031531
1247.72	0.00348168
1257.36	0.00336805
1267	0.00363427
1276.64	0.00360578
1286.29	0.00371704
1295.93	0.00408521
1305.57	0.00414708
1315.21	0.00496386
1324.86	0.00491112
1334.5	0.00546537
1344.14	0.00569817
1353.78	0.00628896
1363.43	0.00640769
1373.07	0.00673589
1382.71	0.00659282
1392.35	0.00703695
1401.99	0.00698411
1411.64	0.0073142
1421.28	0.00761472
1430.92	0.00773518
1440.57	0.00766396
1450.21	0.00805211
1459.85	0.00780745
1469.49	0.00768132
1479.13	0.00719739
1488.78	0.00703364
1498.42	0.00709966
1508.06	0.00725456
1517.7	0.00754121
1527.35	0.00824071
1536.99	0.00881997
1546.63	0.00963428
1556.27	0.00980448
1565.91	0.0106289
1575.56	0.0106603
1585.2	0.0114123
1594.84	0.011996
1604.48	0.0117331
1614.13	0.0116527
1623.77	0.0109853
1633.41	0.0101516
1643.05	0.0100674
1652.7	0.0100321
1662.34	0.00990779
1671.98	0.00971751
1681.62	0.00974191
1691.27	0.00999479
1700.91	0.0102185
1710.55	0.00952253
1720.19	0.00938303
1729.84	0.00926655
1739.48	0.0092599
1749.12	0.00915026
1758.76	0.00934972
1768.4	0.00938143
1778.05	0.00933503
1787.69	0.00910948
1797.33	0.00847561
1806.97	0.00849132
1816.62	0.00844948
1826.26	0.00905876
1835.9	0.00845479
1845.54	0.008041
1855.18	0.00883327
1864.83	0.00858886
1874.47	0.00889389
1884.11	0.00748421
1893.75	0.00852857
1903.4	0.00853848
1913.04	0.0084863
1922.68	0.00892592
1932.32	0.00912471
1941.97	0.00783705
1951.61	0.0093792
1961.25	0.00938864
1970.89	0.0106684
1980.54	0.0120405
1990.18	0.0126839
1999.82	0.010258
2009.46	0.01167
2019.11	0.0107116
2028.75	0.0119471
2038.39	0.0148253
2048.03	0.0141595
2057.67	0.0126486
2067.32	0.0142992
2076.96	0.0130735
2086.6	0.0134542
2096.24	0.0137022
2105.89	0.0130423
2115.53	0.0138176
2125.17	0.0116917
2134.81	0.0105402
2144.45	0.0132728
2154.1	0.00895745
2163.74	0.0188386
2173.38	0.0132603
2183.02	0.0157939
2192.67	0.0156064
2202.31	0.0160258
2211.95	0.0149529
2221.59	0.0160202
2231.24	0.0142189
2240.88	0.0160219
2250.52	0.0158038
2260.16	0.0164515
2269.8	0.0158401
2279.45	0.0170209
2289.09	0.0166853
2298.73	0.0161861
2308.38	0.0167586
2318.02	0.0161721
2327.66	0.0152701
2337.3	0.0147066
2346.94	0.0148645
2356.59	0.014831
2366.23	0.0141598
2375.87	0.0149312
2385.51	0.0159147
2395.16	0.0151574
2404.8	0.0160077
2414.44	0.016484
2424.08	0.0160956
2433.72	0.0168034
2443.37	0.0168288
2453.01	0.0166505
2462.65	0.01696
2472.29	0.0164305
2481.94	0.0170073
2491.58	0.0173003
2501.22	0.016696
2510.86	0.0161403
2520.51	0.0170283
2530.15	0.0177025
2539.79	0.0166147
2549.43	0.0167502
2559.07	0.0178372
2568.72	0.0172987
2578.36	0.0186878
2588	0.0186
2597.64	0.0179513
2607.29	0.0192359
2616.93	0.0186439
2626.57	0.0190991
2636.21	0.0189569
2645.86	0.0187392
2655.5	0.0187834
2665.14	0.017996
2674.78	0.0178239
2684.43	0.0180639
2694.07	0.0182573
2703.71	0.0179197
2713.35	0.0181571
2722.99	0.0182309
2732.64	0.0186908
2742.28	0.0180111
2751.92	0.0186466
2761.56	0.0183637
2771.21	0.0191151
2780.85	0.0187841
2790.49	0.0186859
2800.13	0.0188324
2809.78	0.0192507
2819.42	0.018734
2829.06	0.0193237
2838.7	0.0191938
2848.34	0.019751
2857.99	0.0186548
2867.63	0.0189385
2877.27	0.0190478
2886.91	0.019226
2896.56	0.0214719
2906.2	0.0204107
2915.84	0.0199132
2925.48	0.0208301
2935.13	0.0212986
2944.77	0.0207564
2954.41	0.0197907
2964.05	0.0197048
2973.7	0.0201765
2983.34	0.0189242
2992.98	0.0210378
3002.62	0.0203338
3012.26	0.0196174
3021.91	0.0197372
3031.55	0.0202401
3041.19	0.0198558
3050.83	0.0209952
3060.48	0.0213313
3070.12	0.0206913
3079.76	0.0196745
3089.4	0.0204986
3099.05	0.0218349
3108.69	0.0213293
3118.33	0.0225811
3127.97	0.0217967
3137.61	0.0216617
3147.26	0.0227155
3156.9	0.0203685
3166.54	0.0220439
3176.18	0.0227248
3185.83	0.0210804
3195.47	0.022072
3205.11	0.0233003
3214.75	0.0223189
3224.4	0.0227738
3234.04	0.0228737
3243.68	0.0210385
3253.32	0.0226138
3262.97	0.0248127
3272.61	0.023835
3282.25	0.0235099
3291.89	0.0224042
3301.53	0.0217845
3311.18	0.0229529
3320.82	0.0228239
3330.46	0.0243227
3340.1	0.0249678
3349.75	0.0237438
3359.39	0.0251361
3369.03	0.0232545
3378.67	0.0237468
3388.32	0.0233625
3397.96	0.0234164
3407.6	0.0242518
3417.24	0.0236292
3426.89	0.0222928
3436.53	0.0246702
3446.17	0.0231627
3455.81	0.0232778
3465.45	0.0223855
3475.1	0.0234495
3484.74	0.0222426
3494.38	0.0243533
3504.02	0.0239889
3513.67	0.0234619
3523.31	0.0246477
3532.95	0.0237253
3542.59	0.0237622
3552.24	0.0211737
3561.88	0.0249918
3571.52	0.0246381
3581.16	0.0232719
3590.8	0.0216561
3600.45	0.0238744
3610.09	0.0211094
3619.73	0.0214623
3629.37	0.0240154
3639.02	0.024376
3648.66	0.0213373
3658.3	0.0244906
3667.94	0.0217178
3677.59	0.0222368
3687.23	0.0228628
3696.87	0.0242982
3706.51	0.023693
3716.16	0.0233581
3725.8	0.0217929
3735.44	0.0236037
3745.08	0.022876
3754.72	0.0213522
3764.37	0.0228003
3774.01	0.0246966
3783.65	0.025682
3793.29	0.0215887
3802.94	0.0231043
3812.58	0.025105
3822.22	0.0234886
3831.86	0.0238647
3841.51	0.0256852
3851.15	0.0216756
3860.79	0.0252387
3870.43	0.0238366
3880.07	0.0228099
3889.72	0.0230317
3899.36	0.0243569
3909	0.0197173
3918.64	0.0253869
3928.29	0.0226267
3937.93	0.0227828
3947.57	0.0228132
3957.21	0.025091
3966.86	0.0263449
3976.5	0.0219523
3986.14	0.0259392
3995.78	0.0250291
