Measurement: Infrared, Infrared Data Processed
Mineral: Grossular
Rruff sample: R050312
Ideal chemistry: Ca_3_Al_2_(SiO_4_)_3_
Locality: Eden Mills mine, Vermont, USA
Source: Eugene Schlepp
Description: Red crystal
Measured chemistry: Ca_3.00_(Al_1.75_Fe^3+^_0.23_Ti_0.02_)_Σ=2_((Si_0.99_Al_0.01_)_Σ=1_O_4_)_3_
x	intensity
399.193	0.190429
408.835	0.194356
418.477	0.233256
428.12	0.226772
437.762	0.230824
447.404	0.208847
457.047	0.182002
466.689	0.176856
476.331	0.152825
485.974	0.131448
495.616	0.115939
505.258	0.104694
514.901	0.0808751
524.543	0.072026
534.185	0.115494
543.828	0.114897
553.47	0.0786025
563.112	0.0528047
572.755	0.037943
582.397	0.0309182
592.039	0.0302422
601.682	0.0365084
611.324	0.0628932
620.966	0.0551809
630.609	0.033496
640.251	0.0299362
649.893	0.0292076
659.536	0.0294606
669.178	0.0319795
678.82	0.0322154
688.463	0.0333042
698.105	0.0354552
707.747	0.0385567
717.39	0.0434862
727.032	0.0514546
736.674	0.0636152
746.317	0.0790903
755.959	0.100795
765.601	0.120571
775.244	0.144722
784.886	0.172563
794.528	0.202615
804.171	0.230624
813.813	0.253075
823.455	0.268823
833.098	0.271084
842.74	0.248788
852.382	0.234957
862.025	0.211291
871.667	0.163097
881.309	0.12732
890.952	0.134398
900.594	0.213457
910.236	0.232185
919.879	0.190084
929.521	0.151962
939.163	0.125487
948.806	0.105591
958.448	0.0857605
968.09	0.0676677
977.733	0.0509447
987.375	0.0354429
997.017	0.0248958
1006.66	0.0197224
1016.3	0.0170648
1025.94	0.0164801
1035.59	0.0176213
1045.23	0.0177824
1054.87	0.0166923
1064.51	0.016577
1074.16	0.0166573
1083.8	0.0155308
1093.44	0.0139511
1103.08	0.0123219
1112.72	0.00975597
1122.37	0.00705483
1132.01	0.00506226
1141.65	0.00231648
1151.3	0.000284543
1160.94	-0.000821552
1170.58	-0.00165077
1180.22	-0.00179773
1189.86	-0.00196773
1199.51	-0.00189205
1209.15	-0.00164242
1218.79	-0.00201553
1228.43	-0.00230094
1238.08	-0.00285544
1247.72	-0.0029253
1257.36	-0.00271946
1267	-0.0023708
1276.64	-0.00187758
1286.29	-0.00182303
1295.93	-0.000869838
1305.57	-0.000665407
1315.21	-0.000194588
1324.86	6.17237e-05
1334.5	0.000508767
1344.14	0.000108769
1353.78	0.000323952
1363.43	0.000567273
1373.07	4.15841e-05
1382.71	0.000385197
1392.35	0.001822
1401.99	0.0019651
1411.64	0.00185029
1421.28	0.00267997
1430.92	0.00233812
1440.57	0.00164217
1450.21	0.000757454
1459.85	-0.000480333
1469.49	0.000345697
1479.13	0.0028663
1488.78	0.00361615
1498.42	0.00402687
1508.06	0.00455863
1517.7	0.00449826
1527.35	0.00450258
1536.99	0.00430529
1546.63	0.00466227
1556.27	0.00477837
1565.91	0.00429467
1575.56	0.00402509
1585.2	0.00327984
1594.84	0.00326937
1604.48	0.00285623
1614.13	0.00281938
1623.77	0.00230056
1633.41	0.00225965
1643.05	0.00216098
1652.7	0.00259041
1662.34	0.00275982
1671.98	0.00242989
1681.62	0.00277774
1691.27	0.00286624
1700.91	0.00183775
1710.55	-0.00161327
1720.19	-0.00127314
1729.84	-0.00223248
1739.48	-0.00501218
1749.12	-0.0026428
1758.76	0.00282379
1768.4	0.00479442
1778.05	0.00446654
1787.69	0.00470795
1797.33	0.00538478
1806.97	0.00484826
1816.62	0.00483719
1826.26	0.00486597
1835.9	0.00528132
1845.54	0.00531023
1855.18	0.00475059
1864.83	0.00506044
1874.47	0.00686092
1884.11	0.00623355
1893.75	0.00557618
1903.4	0.00547238
1913.04	0.00495141
1922.68	0.00620575
1932.32	0.0053858
1941.97	0.00568879
1951.61	0.00733637
1961.25	0.00717075
1970.89	0.0063215
1980.54	0.0134985
1990.18	0.00611627
1999.82	0.0114974
2009.46	0.00875585
2019.11	0.00785089
2028.75	0.00943514
2038.39	0.00793685
2048.03	0.0116076
2057.67	0.00821951
2067.32	0.00992544
2076.96	0.00750949
2086.6	0.00946126
2096.24	0.0086733
2105.89	0.00974262
2115.53	0.00936317
2125.17	0.00608561
2134.81	0.0078405
2144.45	0.00766233
2154.1	0.0100778
2163.74	0.0139343
2173.38	0.0144666
2183.02	0.0131609
2192.67	0.0121851
2202.31	0.0126107
2211.95	0.00849559
2221.59	0.0108289
2231.24	0.0107266
2240.88	0.0103002
2250.52	0.0114669
2260.16	0.0105588
2269.8	0.0121043
2279.45	0.0136882
2289.09	0.0126395
2298.73	0.0125087
2308.38	0.0118435
2318.02	0.0127233
2327.66	0.0121396
2337.3	0.0115875
2346.94	0.011359
2356.59	0.0124834
2366.23	0.012017
2375.87	0.0101837
2385.51	0.0106049
2395.16	0.0112811
2404.8	0.0113364
2414.44	0.0105564
2424.08	0.0119047
2433.72	0.0111483
2443.37	0.0102031
2453.01	0.0109096
2462.65	0.0110721
2472.29	0.0119662
2481.94	0.0104741
2491.58	0.0103713
2501.22	0.0110531
2510.86	0.0110288
2520.51	0.0110783
2530.15	0.00943787
2539.79	0.0109569
2549.43	0.0121154
2559.07	0.0114731
2568.72	0.0121879
2578.36	0.011069
2588	0.0119225
2597.64	0.0112441
2607.29	0.0126461
2616.93	0.0109755
2626.57	0.0118798
2636.21	0.011188
2645.86	0.0121644
2655.5	0.0119899
2665.14	0.0113694
2674.78	0.0110161
2684.43	0.0104297
2694.07	0.0112777
2703.71	0.0107491
2713.35	0.0126201
2722.99	0.012541
2732.64	0.0112469
2742.28	0.0102902
2751.92	0.0126642
2761.56	0.0132913
2771.21	0.0129171
2780.85	0.0136973
2790.49	0.0114992
2800.13	0.0123163
2809.78	0.0129609
2819.42	0.0116113
2829.06	0.0111216
2838.7	0.0119715
2848.34	0.0123272
2857.99	0.0131639
2867.63	0.00951812
2877.27	0.0103578
2886.91	0.0098581
2896.56	0.00944265
2906.2	0.00961051
2915.84	0.0111962
2925.48	0.0115473
2935.13	0.0138368
2944.77	0.0119475
2954.41	0.0102335
2964.05	0.0145744
2973.7	0.0118809
2983.34	0.0139098
2992.98	0.0142585
3002.62	0.0160171
3012.26	0.0148558
3021.91	0.0160809
3031.55	0.0124897
3041.19	0.0133051
3050.83	0.01348
3060.48	0.0154287
3070.12	0.0129048
3079.76	0.0160502
3089.4	0.0157197
3099.05	0.0151125
3108.69	0.0136164
3118.33	0.0121757
3127.97	0.0141468
3137.61	0.0152745
3147.26	0.0157182
3156.9	0.0149946
3166.54	0.0125993
3176.18	0.0157567
3185.83	0.0141479
3195.47	0.0151819
3205.11	0.0119965
3214.75	0.0140768
3224.4	0.0133127
3234.04	0.012512
3243.68	0.0148274
3253.32	0.0117765
3262.97	0.0128908
3272.61	0.0127304
3282.25	0.0122738
3291.89	0.0134921
3301.53	0.0151272
3311.18	0.0161959
3320.82	0.0130948
3330.46	0.0159142
3340.1	0.0145686
3349.75	0.0122634
3359.39	0.0146307
3369.03	0.0149081
3378.67	0.0117445
3388.32	0.010456
3397.96	0.0147398
3407.6	0.0133515
3417.24	0.0157453
3426.89	0.0121853
3436.53	0.012258
3446.17	0.0132409
3455.81	0.0108318
3465.45	0.0155748
3475.1	0.0154602
3484.74	0.0155059
3494.38	0.0144064
3504.02	0.0132053
3513.67	0.0179735
3523.31	0.0161242
3532.95	0.0163433
3542.59	0.0162221
3552.24	0.0153358
3561.88	0.0187293
3571.52	0.0152566
3581.16	0.0186536
3590.8	0.0173958
3600.45	0.0183623
3610.09	0.0173347
3619.73	0.0172211
3629.37	0.0186436
3639.02	0.0161028
3648.66	0.0170013
3658.3	0.0141521
3667.94	0.0188738
3677.59	0.0165322
3687.23	0.0166492
3696.87	0.0160222
3706.51	0.018861
3716.16	0.0145462
3725.8	0.0136263
3735.44	0.0198568
3745.08	0.0172246
3754.72	0.0164877
3764.37	0.0173941
3774.01	0.0163994
3783.65	0.0148759
3793.29	0.0168886
3802.94	0.017882
3812.58	0.0174544
3822.22	0.0190902
3831.86	0.01554
3841.51	0.0206682
3851.15	0.0168069
3860.79	0.0151405
3870.43	0.0193188
3880.07	0.0153814
3889.72	0.0147818
3899.36	0.0232166
3909	0.0155131
3918.64	0.0111217
3928.29	0.0147046
3937.93	0.0144141
3947.57	0.0171277
3957.21	0.0138572
3966.86	0.0154542
3976.5	0.0183703
3986.14	0.0155251
3995.78	0.0177138
