Measurement: Infrared, Infrared Data Processed
Mineral: Grossular
Rruff sample: R050081
Ideal chemistry: Ca_3_Al_2_(SiO_4_)_3_
Locality: Kayes Region, Mali
Source: Rock Currier
Description: Dark brown dodecahedron
Measured chemistry: (Ca_2.92_Mg_0.07_Mn_0.01_)_Σ=3_(Al_1.04_Fe^3+^_0.89_Ti_0.07_)_Σ=2_((Si_0.98_Al_0.02_)_Σ=1_O_4_)_3_; trace amounts of Y
x	intensity
399.193	0.208343
408.835	0.226127
418.477	0.209246
428.12	0.185444
437.762	0.167516
447.404	0.166856
457.047	0.156581
466.689	0.124262
476.331	0.0967173
485.974	0.0930214
495.616	0.0732111
505.258	0.064789
514.901	0.105214
524.543	0.125097
534.185	0.0853219
543.828	0.0481358
553.47	0.0328668
563.112	0.0274187
572.755	0.0236024
582.397	0.0232747
592.039	0.0334826
601.682	0.0516783
611.324	0.0397631
620.966	0.0303467
630.609	0.0284911
640.251	0.0350131
649.893	0.0417828
659.536	0.0474245
669.178	0.05287
678.82	0.0577936
688.463	0.0660697
698.105	0.0789794
707.747	0.090516
717.39	0.101067
727.032	0.115416
736.674	0.129856
746.317	0.134348
755.959	0.134907
765.601	0.147158
775.244	0.161552
784.886	0.17847
794.528	0.194026
804.171	0.20264
813.813	0.203862
823.455	0.197165
833.098	0.187826
842.74	0.180357
852.382	0.160922
862.025	0.134206
871.667	0.116853
881.309	0.128512
890.952	0.167092
900.594	0.168907
910.236	0.146729
919.879	0.130671
929.521	0.118561
939.163	0.100134
948.806	0.0843408
958.448	0.0610945
968.09	0.0440682
977.733	0.0303925
987.375	0.0206448
997.017	0.0146167
1006.66	0.00990947
1016.3	0.00654597
1025.94	0.00537484
1035.59	0.00435026
1045.23	0.00367474
1054.87	0.00332142
1064.51	0.00284106
1074.16	0.00247684
1083.8	0.00219523
1093.44	0.00190775
1103.08	0.00170496
1112.72	0.00149762
1122.37	0.00137072
1132.01	0.00141286
1141.65	0.00127609
1151.3	0.00125432
1160.94	0.00123294
1170.58	0.00139713
1180.22	0.00144334
1189.86	0.00153753
1199.51	0.00160537
1209.15	0.00178359
1218.79	0.00187169
1228.43	0.00201191
1238.08	0.00205776
1247.72	0.00204445
1257.36	0.00224462
1267	0.00253408
1276.64	0.0027301
1286.29	0.0029278
1295.93	0.00320263
1305.57	0.00349168
1315.21	0.00382677
1324.86	0.00397053
1334.5	0.00402761
1344.14	0.00439456
1353.78	0.00451142
1363.43	0.00464995
1373.07	0.00497541
1382.71	0.00506741
1392.35	0.00537945
1401.99	0.00568152
1411.64	0.00597621
1421.28	0.00612246
1430.92	0.00612847
1440.57	0.00621691
1450.21	0.00609446
1459.85	0.00613421
1469.49	0.0063598
1479.13	0.00652376
1488.78	0.00674606
1498.42	0.00695543
1508.06	0.00728934
1517.7	0.00740557
1527.35	0.00744975
1536.99	0.00802308
1546.63	0.00821596
1556.27	0.00886184
1565.91	0.00911476
1575.56	0.00943363
1585.2	0.00963596
1594.84	0.00984276
1604.48	0.00966369
1614.13	0.0100334
1623.77	0.0102713
1633.41	0.0101852
1643.05	0.0101814
1652.7	0.0109524
1662.34	0.0109648
1671.98	0.0107534
1681.62	0.0108716
1691.27	0.0106942
1700.91	0.0107662
1710.55	0.0100877
1720.19	0.0100707
1729.84	0.00961593
1739.48	0.00940844
1749.12	0.00905873
1758.76	0.00973423
1768.4	0.00992345
1778.05	0.0102052
1787.69	0.0101077
1797.33	0.0104885
1806.97	0.0102511
1816.62	0.00983737
1826.26	0.0103519
1835.9	0.0101369
1845.54	0.0104663
1855.18	0.0103906
1864.83	0.0107717
1874.47	0.0110098
1884.11	0.0107771
1893.75	0.0106391
1903.4	0.0111852
1913.04	0.011662
1922.68	0.0112178
1932.32	0.0115222
1941.97	0.0115134
1951.61	0.0114187
1961.25	0.0113914
1970.89	0.0134122
1980.54	0.0154663
1990.18	0.0136879
1999.82	0.0138725
2009.46	0.0142944
2019.11	0.0144904
2028.75	0.0149387
2038.39	0.0160494
2048.03	0.0144347
2057.67	0.0141583
2067.32	0.0152551
2076.96	0.0145329
2086.6	0.0147938
2096.24	0.014751
2105.89	0.015371
2115.53	0.0156045
2125.17	0.0141869
2134.81	0.0129971
2144.45	0.0125352
2154.1	0.0122862
2163.74	0.018264
2173.38	0.0157173
2183.02	0.0167609
2192.67	0.017222
2202.31	0.0181825
2211.95	0.0168418
2221.59	0.0172974
2231.24	0.0176655
2240.88	0.0175312
2250.52	0.0173269
2260.16	0.0178978
2269.8	0.0181951
2279.45	0.0189062
2289.09	0.0190078
2298.73	0.0182411
2308.38	0.0183847
2318.02	0.0187085
2327.66	0.018068
2337.3	0.0179509
2346.94	0.0176554
2356.59	0.0177671
2366.23	0.017557
2375.87	0.0170503
2385.51	0.0164329
2395.16	0.0166621
2404.8	0.0166534
2414.44	0.0171264
2424.08	0.0175013
2433.72	0.0170174
2443.37	0.0174397
2453.01	0.0181804
2462.65	0.0180598
2472.29	0.0178221
2481.94	0.0181263
2491.58	0.0184291
2501.22	0.0183442
2510.86	0.0180755
2520.51	0.0189127
2530.15	0.0189675
2539.79	0.0188972
2549.43	0.0193733
2559.07	0.0196891
2568.72	0.0194547
2578.36	0.0196762
2588	0.0200687
2597.64	0.0201199
2607.29	0.0203537
2616.93	0.0204539
2626.57	0.0200292
2636.21	0.0204393
2645.86	0.0201203
2655.5	0.0198854
2665.14	0.0194742
2674.78	0.0190059
2684.43	0.0193281
2694.07	0.0192291
2703.71	0.0194182
2713.35	0.0192878
2722.99	0.0191896
2732.64	0.0195753
2742.28	0.0194945
2751.92	0.0195574
2761.56	0.0196602
2771.21	0.0198185
2780.85	0.0202544
2790.49	0.0198299
2800.13	0.0197378
2809.78	0.0201406
2819.42	0.0202409
2829.06	0.0204912
2838.7	0.0203301
2848.34	0.020562
2857.99	0.019096
2867.63	0.0196338
2877.27	0.0200899
2886.91	0.020476
2896.56	0.0200237
2906.2	0.0202661
2915.84	0.0203164
2925.48	0.0189
2935.13	0.0187954
2944.77	0.0192675
2954.41	0.0194443
2964.05	0.0194573
2973.7	0.0197746
2983.34	0.0199171
2992.98	0.0196868
3002.62	0.0201473
3012.26	0.0209009
3021.91	0.0205005
3031.55	0.0205638
3041.19	0.0203361
3050.83	0.0209863
3060.48	0.0209732
3070.12	0.0202914
3079.76	0.020903
3089.4	0.0213179
3099.05	0.0209687
3108.69	0.0212647
3118.33	0.021233
3127.97	0.0215481
3137.61	0.0217319
3147.26	0.0212979
3156.9	0.0225124
3166.54	0.021784
3176.18	0.0221627
3185.83	0.0225531
3195.47	0.0220589
3205.11	0.0225699
3214.75	0.0222689
3224.4	0.0210702
3234.04	0.0221795
3243.68	0.0216423
3253.32	0.0225854
3262.97	0.0225928
3272.61	0.022715
3282.25	0.0223597
3291.89	0.0222671
3301.53	0.0220119
3311.18	0.0223211
3320.82	0.0220961
3330.46	0.0227753
3340.1	0.0228945
3349.75	0.0225203
3359.39	0.0221997
3369.03	0.0225247
3378.67	0.0224121
3388.32	0.0220549
3397.96	0.0222815
3407.6	0.0220551
3417.24	0.0225502
3426.89	0.0221319
3436.53	0.0228412
3446.17	0.0222091
3455.81	0.0218452
3465.45	0.0226972
3475.1	0.0209715
3484.74	0.0212668
3494.38	0.0212689
3504.02	0.0217847
3513.67	0.0219544
3523.31	0.0224302
3532.95	0.0216651
3542.59	0.0217147
3552.24	0.0216722
3561.88	0.0213414
3571.52	0.0219812
3581.16	0.0215756
3590.8	0.0214164
3600.45	0.0209567
3610.09	0.0219738
3619.73	0.0213686
3629.37	0.0214967
3639.02	0.0220744
3648.66	0.0212137
3658.3	0.0218104
3667.94	0.0222154
3677.59	0.0212843
3687.23	0.0215228
3696.87	0.0217234
3706.51	0.022434
3716.16	0.0222203
3725.8	0.022797
3735.44	0.0226311
3745.08	0.0221879
3754.72	0.0218348
3764.37	0.0224236
3774.01	0.0225311
3783.65	0.0214007
3793.29	0.0210939
3802.94	0.0222485
3812.58	0.0221628
3822.22	0.0222017
3831.86	0.0228998
3841.51	0.0212922
3851.15	0.0224569
3860.79	0.0216787
3870.43	0.0217284
3880.07	0.0215727
3889.72	0.022213
3899.36	0.0221098
3909	0.0218104
3918.64	0.0215853
3928.29	0.0210256
3937.93	0.021572
3947.57	0.0213458
3957.21	0.021053
3966.86	0.0217371
3976.5	0.0215556
3986.14	0.021425
3995.78	0.0216288
