Measurement: Infrared, Infrared Data Processed
Mineral: Grunerite
Rruff sample: R060062
Ideal chemistry: [box]Fe^2+^_2_Fe^2+^_5_Si_8_O_22_(OH)_2_
Locality: 2C mine, Broken Hill, New South Wales, Australia
Source: University of Arizona Mineral Museum
Description: Aggregate of greenish-brown colored parallel acicular crystals
Measured chemistry: [box](Fe^2+^_4.32_Mg_1.90_Mn_0.54_Ca_0.22_)_Σ=7_(Si_7.98_Al_0.02_)_Σ=8_O_22_(OH)_2_
x	intensity
399.193	0.207118
408.835	0.248319
418.477	0.246144
428.12	0.250203
437.762	0.212927
447.404	0.225593
457.047	0.251739
466.689	0.280676
476.331	0.281555
485.974	0.26406
495.616	0.237184
505.258	0.216272
514.901	0.190913
524.543	0.164747
534.185	0.138956
543.828	0.113834
553.47	0.0928056
563.112	0.0773366
572.755	0.0612247
582.397	0.0529038
592.039	0.0482064
601.682	0.0555691
611.324	0.0689746
620.966	0.0951536
630.609	0.117637
640.251	0.104966
649.893	0.0816711
659.536	0.0710318
669.178	0.0637261
678.82	0.0753742
688.463	0.0964883
698.105	0.108232
707.747	0.0898246
717.39	0.0709956
727.032	0.0757452
736.674	0.0722098
746.317	0.0705089
755.959	0.087845
765.601	0.116065
775.244	0.127418
784.886	0.0915873
794.528	0.0857824
804.171	0.0932425
813.813	0.10537
823.455	0.121107
833.098	0.140657
842.74	0.16404
852.382	0.193202
862.025	0.228842
871.667	0.269248
881.309	0.301493
890.952	0.303401
900.594	0.290727
910.236	0.296748
919.879	0.332817
929.521	0.381347
939.163	0.425769
948.806	0.447946
958.448	0.444261
968.09	0.413158
977.733	0.37423
987.375	0.352193
997.017	0.331027
1006.66	0.289215
1016.3	0.250754
1025.94	0.223239
1035.59	0.202094
1045.23	0.17932
1054.87	0.158281
1064.51	0.1629
1074.16	0.183791
1083.8	0.17071
1093.44	0.13706
1103.08	0.101327
1112.72	0.0879743
1122.37	0.112459
1132.01	0.110532
1141.65	0.0784453
1151.3	0.0540044
1160.94	0.0413779
1170.58	0.0379413
1180.22	0.0365852
1189.86	0.0354441
1199.51	0.0351179
1209.15	0.0345015
1218.79	0.0346052
1228.43	0.0350655
1238.08	0.0351325
1247.72	0.0351209
1257.36	0.0361048
1267	0.0365196
1276.64	0.0377183
1286.29	0.0376469
1295.93	0.0384774
1305.57	0.0379348
1315.21	0.0395516
1324.86	0.0397541
1334.5	0.0407963
1344.14	0.0418623
1353.78	0.0420841
1363.43	0.0426911
1373.07	0.0437697
1382.71	0.0444495
1392.35	0.0449903
1401.99	0.0451261
1411.64	0.0462837
1421.28	0.0465861
1430.92	0.0473845
1440.57	0.0479019
1450.21	0.048133
1459.85	0.0485949
1469.49	0.0492905
1479.13	0.0490831
1488.78	0.0503351
1498.42	0.0504599
1508.06	0.051324
1517.7	0.0521486
1527.35	0.0526591
1536.99	0.0533462
1546.63	0.0537786
1556.27	0.0545935
1565.91	0.0552686
1575.56	0.0556521
1585.2	0.055877
1594.84	0.0572519
1604.48	0.0580365
1614.13	0.058792
1623.77	0.0598468
1633.41	0.060327
1643.05	0.0609765
1652.7	0.061101
1662.34	0.0612019
1671.98	0.0615539
1681.62	0.0614797
1691.27	0.0623441
1700.91	0.0628245
1710.55	0.0631557
1720.19	0.0635644
1729.84	0.0646632
1739.48	0.0646966
1749.12	0.0653487
1758.76	0.0652167
1768.4	0.0660958
1778.05	0.0656665
1787.69	0.0668327
1797.33	0.0666473
1806.97	0.0670593
1816.62	0.0670289
1826.26	0.0666744
1835.9	0.0683191
1845.54	0.068106
1855.18	0.068452
1864.83	0.0682514
1874.47	0.0699583
1884.11	0.0708472
1893.75	0.0690012
1903.4	0.0680404
1913.04	0.067609
1922.68	0.0693418
1932.32	0.0691543
1941.97	0.0681175
1951.61	0.0658425
1961.25	0.0663696
1970.89	0.0626557
1980.54	0.0672829
1990.18	0.0706305
1999.82	0.0665813
2009.46	0.0675266
2019.11	0.0708931
2028.75	0.0696288
2038.39	0.0720726
2048.03	0.0698985
2057.67	0.0762543
2067.32	0.0765812
2076.96	0.0753791
2086.6	0.0762604
2096.24	0.0766585
2105.89	0.0780504
2115.53	0.0784516
2125.17	0.0761287
2134.81	0.077796
2144.45	0.0782567
2154.1	0.0675837
2163.74	0.0784695
2173.38	0.077561
2183.02	0.0847055
2192.67	0.0866706
2202.31	0.083917
2211.95	0.0862045
2221.59	0.0868742
2231.24	0.0881871
2240.88	0.0865751
2250.52	0.0872938
2260.16	0.0916892
2269.8	0.0904496
2279.45	0.0924373
2289.09	0.0917074
2298.73	0.092675
2308.38	0.0923583
2318.02	0.0950627
2327.66	0.0939818
2337.3	0.0941615
2346.94	0.0940574
2356.59	0.0944275
2366.23	0.0937314
2375.87	0.0946815
2385.51	0.0943634
2395.16	0.0948445
2404.8	0.0955992
2414.44	0.0948931
2424.08	0.0973122
2433.72	0.0987001
2443.37	0.0964167
2453.01	0.0974131
2462.65	0.0973586
2472.29	0.0981558
2481.94	0.0999299
2491.58	0.10035
2501.22	0.0980123
2510.86	0.101359
2520.51	0.10155
2530.15	0.101644
2539.79	0.101556
2549.43	0.101833
2559.07	0.103833
2568.72	0.102134
2578.36	0.10206
2588	0.103582
2597.64	0.103173
2607.29	0.103451
2616.93	0.10562
2626.57	0.105808
2636.21	0.107577
2645.86	0.105877
2655.5	0.105644
2665.14	0.106906
2674.78	0.105591
2684.43	0.106768
2694.07	0.107343
2703.71	0.107837
2713.35	0.108349
2722.99	0.110386
2732.64	0.110445
2742.28	0.10883
2751.92	0.110787
2761.56	0.110977
2771.21	0.111877
2780.85	0.110969
2790.49	0.111607
2800.13	0.113628
2809.78	0.11179
2819.42	0.112691
2829.06	0.113709
2838.7	0.116338
2848.34	0.116258
2857.99	0.115987
2867.63	0.115224
2877.27	0.117722
2886.91	0.117395
2896.56	0.117738
2906.2	0.118737
2915.84	0.121672
2925.48	0.123341
2935.13	0.122167
2944.77	0.120349
2954.41	0.119911
2964.05	0.120802
2973.7	0.119752
2983.34	0.119011
2992.98	0.119485
3002.62	0.120396
3012.26	0.118138
3021.91	0.11983
3031.55	0.120927
3041.19	0.122195
3050.83	0.120998
3060.48	0.122738
3070.12	0.121964
3079.76	0.1234
3089.4	0.121361
3099.05	0.125045
3108.69	0.123225
3118.33	0.123737
3127.97	0.125333
3137.61	0.1243
3147.26	0.126009
3156.9	0.126003
3166.54	0.124934
3176.18	0.125942
3185.83	0.127264
3195.47	0.129501
3205.11	0.127048
3214.75	0.12675
3224.4	0.127837
3234.04	0.127934
3243.68	0.128421
3253.32	0.127641
3262.97	0.127806
3272.61	0.131171
3282.25	0.129423
3291.89	0.129773
3301.53	0.131159
3311.18	0.133702
3320.82	0.13273
3330.46	0.131761
3340.1	0.132917
3349.75	0.133724
3359.39	0.131451
3369.03	0.134997
3378.67	0.131676
3388.32	0.133469
3397.96	0.134889
3407.6	0.133991
3417.24	0.135296
3426.89	0.133274
3436.53	0.132984
3446.17	0.13428
3455.81	0.138323
3465.45	0.137041
3475.1	0.136574
3484.74	0.133608
3494.38	0.137333
3504.02	0.136243
3513.67	0.137445
3523.31	0.135454
3532.95	0.135292
3542.59	0.137142
3552.24	0.136885
3561.88	0.134623
3571.52	0.137924
3581.16	0.134379
3590.8	0.134682
3600.45	0.139942
3610.09	0.138011
3619.73	0.150169
3629.37	0.135942
3639.02	0.149822
3648.66	0.1305
3658.3	0.133199
3667.94	0.133494
3677.59	0.132882
3687.23	0.134372
3696.87	0.137361
3706.51	0.13584
3716.16	0.133618
3725.8	0.135619
3735.44	0.138495
3745.08	0.135646
3754.72	0.134479
3764.37	0.138946
3774.01	0.137063
3783.65	0.139844
3793.29	0.140824
3802.94	0.140359
3812.58	0.139154
3822.22	0.136173
3831.86	0.140177
3841.51	0.140653
3851.15	0.141588
3860.79	0.138469
3870.43	0.141007
3880.07	0.14383
3889.72	0.141813
3899.36	0.135424
3909	0.14198
3918.64	0.142721
3928.29	0.1405
3937.93	0.140066
3947.57	0.143407
3957.21	0.140468
3966.86	0.14101
3976.5	0.145019
3986.14	0.14278
3995.78	0.14398
