Measurement: Infrared, Infrared Data Processed
Mineral: Gypsum
Rruff sample: R040029
Ideal chemistry: CaS^6+^O_4_2H_2_O
Locality: Twin Buttes, Pima County, Arizona, USA
Source: University of Arizona Mineral Museum
Description: Colorless prismatic crystal
x	intensity
399.193	0
408.835	0.105204
418.477	0.113602
428.12	0.108952
437.762	0.109214
447.404	0.115638
457.047	0.12089
466.689	0.117172
476.331	0.112361
485.974	0.102885
495.616	0.0945508
505.258	0.0876431
514.901	0.081353
524.543	0.0782369
534.185	0.081
543.828	0.0885614
553.47	0.103192
563.112	0.12399
572.755	0.149143
582.397	0.173865
592.039	0.220563
601.682	0.223056
611.324	0.117251
620.966	0.0825825
630.609	0.0705605
640.251	0.061088
649.893	0.0576508
659.536	0.09093
669.178	0.208317
678.82	0.0872139
688.463	0.0394602
698.105	0.0298623
707.747	0.0267195
717.39	0.0256753
727.032	0.0247938
736.674	0.0248453
746.317	0.0249093
755.959	0.0250674
765.601	0.0259302
775.244	0.0265535
784.886	0.0274625
794.528	0.0282412
804.171	0.0293524
813.813	0.0303172
823.455	0.0314291
833.098	0.0322649
842.74	0.0336115
852.382	0.0350906
862.025	0.0371389
871.667	0.0388806
881.309	0.0404052
890.952	0.0422719
900.594	0.0441067
910.236	0.0465025
919.879	0.049113
929.521	0.0523281
939.163	0.0554421
948.806	0.0593165
958.448	0.0634377
968.09	0.0684757
977.733	0.0746645
987.375	0.0832847
997.017	0.0937567
1006.66	0.1125
1016.3	0.109562
1025.94	0.126284
1035.59	0.14866
1045.23	0.180976
1054.87	0.229085
1064.51	0.299189
1074.16	0.400547
1083.8	0.534126
1093.44	0.674668
1103.08	0.753865
1112.72	0.692826
1122.37	0.553458
1132.01	0.454132
1141.65	0.358603
1151.3	0.254512
1160.94	0.172839
1170.58	0.117917
1180.22	0.0800184
1189.86	0.0520615
1199.51	0.0328283
1209.15	0.0229196
1218.79	0.0189622
1228.43	0.0158005
1238.08	0.0128213
1247.72	0.0108108
1257.36	0.00895464
1267	0.00852881
1276.64	0.00801639
1286.29	0.00772302
1295.93	0.00735904
1305.57	0.00671732
1315.21	0.00667373
1324.86	0.00622315
1334.5	0.00565431
1344.14	0.00522776
1353.78	0.00493063
1363.43	0.00460727
1373.07	0.00454639
1382.71	0.00431787
1392.35	0.00428714
1401.99	0.00415619
1411.64	0.00460219
1421.28	0.00450328
1430.92	0.00442752
1440.57	0.00441164
1450.21	0.00440756
1459.85	0.00431615
1469.49	0.00465506
1479.13	0.00489143
1488.78	0.00468594
1498.42	0.00514579
1508.06	0.00505105
1517.7	0.00579461
1527.35	0.00637526
1536.99	0.00708379
1546.63	0.00730491
1556.27	0.00829263
1565.91	0.00888233
1575.56	0.0102834
1585.2	0.0130578
1594.84	0.0189093
1604.48	0.0355682
1614.13	0.105219
1623.77	0.134862
1633.41	0.0370165
1643.05	0.0177374
1652.7	0.0135516
1662.34	0.0144236
1671.98	0.0239703
1681.62	0.0600766
1691.27	0.0330491
1700.91	0.0130348
1710.55	0.00735421
1720.19	0.00492534
1729.84	0.00338553
1739.48	0.0026371
1749.12	0.00310263
1758.76	0.00413058
1768.4	0.00371196
1778.05	0.00352987
1787.69	0.00358914
1797.33	0.00385551
1806.97	0.00340116
1816.62	0.00275844
1826.26	0.00269334
1835.9	0.00344133
1845.54	0.00297262
1855.18	0.00319986
1864.83	0.00243821
1874.47	0.00353968
1884.11	0.00282728
1893.75	0.00292937
1903.4	0.00334066
1913.04	0.00295642
1922.68	0.00360163
1932.32	0.00220326
1941.97	0.00259149
1951.61	0.00200605
1961.25	0.00073748
1970.89	0.000288027
1980.54	0.000411229
1990.18	0.00218461
1999.82	-0.000770362
2009.46	-0.00145828
2019.11	-0.000920424
2028.75	-0.00204361
2038.39	0.000358443
2048.03	-0.00139263
2057.67	-0.00105351
2067.32	0.000618348
2076.96	0.00200997
2086.6	0.00267385
2096.24	0.00347748
2105.89	0.00568043
2115.53	0.00572322
2125.17	0.00401909
2134.81	0.000259367
2144.45	-0.00155129
2154.1	-0.00496408
2163.74	-0.00176005
2173.38	-0.00212406
2183.02	-2.67753e-05
2192.67	0.00182294
2202.31	0.00259144
2211.95	0.00210704
2221.59	0.00592978
2231.24	0.00725462
2240.88	0.00771057
2250.52	0.00827025
2260.16	0.00749074
2269.8	0.00742279
2279.45	0.00794082
2289.09	0.00792954
2298.73	0.00863359
2308.38	0.00779408
2318.02	0.00868747
2327.66	0.00745129
2337.3	0.00692762
2346.94	0.00619542
2356.59	0.00681527
2366.23	0.00554788
2375.87	0.00582814
2385.51	0.00553108
2395.16	0.00532236
2404.8	0.00485455
2414.44	0.00647696
2424.08	0.00535181
2433.72	0.00559357
2443.37	0.00548436
2453.01	0.00594767
2462.65	0.00463751
2472.29	0.00584721
2481.94	0.00547418
2491.58	0.00618817
2501.22	0.00591359
2510.86	0.0045989
2520.51	0.00495308
2530.15	0.00557287
2539.79	0.00493161
2549.43	0.00571424
2559.07	0.00567584
2568.72	0.00558772
2578.36	0.00630557
2588	0.00652266
2597.64	0.0069591
2607.29	0.00668673
2616.93	0.00675375
2626.57	0.0070251
2636.21	0.00670852
2645.86	0.00648889
2655.5	0.00694017
2665.14	0.0060315
2674.78	0.00623908
2684.43	0.0064931
2694.07	0.00656991
2703.71	0.00582404
2713.35	0.00632999
2722.99	0.00612573
2732.64	0.00660128
2742.28	0.00745988
2751.92	0.00733086
2761.56	0.00711609
2771.21	0.00713862
2780.85	0.00680396
2790.49	0.00845386
2800.13	0.00781859
2809.78	0.00847008
2819.42	0.00825495
2829.06	0.00798915
2838.7	0.00642911
2848.34	0.00685154
2857.99	0.00779405
2867.63	0.00761803
2877.27	0.00779827
2886.91	0.00850923
2896.56	0.00796631
2906.2	0.00724843
2915.84	0.00537015
2925.48	0.00634876
2935.13	0.00702372
2944.77	0.0071029
2954.41	0.00724733
2964.05	0.00952383
2973.7	0.00942915
2983.34	0.0111891
2992.98	0.0116315
3002.62	0.0122312
3012.26	0.0125861
3021.91	0.0130868
3031.55	0.0133428
3041.19	0.014109
3050.83	0.0146488
3060.48	0.015985
3070.12	0.0159686
3079.76	0.0164468
3089.4	0.0174909
3099.05	0.0193055
3108.69	0.0198743
3118.33	0.0219185
3127.97	0.0230059
3137.61	0.0238765
3147.26	0.0258564
3156.9	0.0291452
3166.54	0.0319724
3176.18	0.0359059
3185.83	0.0392012
3195.47	0.0432938
3205.11	0.0467038
3214.75	0.0522884
3224.4	0.0572603
3234.04	0.0643852
3243.68	0.0735728
3253.32	0.0726233
3262.97	0.0720045
3272.61	0.0784572
3282.25	0.0836797
3291.89	0.0904664
3301.53	0.0980658
3311.18	0.110084
3320.82	0.12065
3330.46	0.129286
3340.1	0.142605
3349.75	0.154854
3359.39	0.173063
3369.03	0.2057
3378.67	0.263097
3388.32	0.335046
3397.96	0.391993
3407.6	0.391352
3417.24	0.333761
3426.89	0.262618
3436.53	0.209969
3446.17	0.181837
3455.81	0.17161
3465.45	0.17465
3475.1	0.184616
3484.74	0.210682
3494.38	0.232032
3504.02	0.25355
3513.67	0.281365
3523.31	0.305085
3532.95	0.314028
3542.59	0.292913
3552.24	0.246941
3561.88	0.190391
3571.52	0.143555
3581.16	0.109872
3590.8	0.0850907
3600.45	0.0670714
3610.09	0.0514978
3619.73	0.0402458
3629.37	0.0287726
3639.02	0.0198699
3648.66	0.015306
3658.3	0.0144646
3667.94	0.012593
3677.59	0.0115355
3687.23	0.00705312
3696.87	0.00821271
3706.51	0.00723566
3716.16	0.00679997
3725.8	0.00890761
3735.44	0.00844436
3745.08	0.00542606
3754.72	0.00687099
3764.37	0.00467693
3774.01	0.00634804
3783.65	0.00856138
3793.29	0.00453723
3802.94	0.00736575
3812.58	0.00743282
3822.22	0.00641019
3831.86	0.00631315
3841.51	0.00608086
3851.15	0.0100627
3860.79	0.0063001
3870.43	0.00589771
3880.07	0.00626848
3889.72	0.00872686
3899.36	0.00938587
3909	0.00875985
3918.64	0.00797265
3928.29	0.00808301
3937.93	0.0101332
3947.57	0.00785602
3957.21	0.00894373
3966.86	0.00789697
3976.5	0.00987726
3986.14	0.0104619
3995.78	0.010154
