Measurement: Infrared, Infrared Data Processed
Mineral: Halite
Rruff sample: R070292
Ideal chemistry: NaCl
Locality: Stassfurt, Stassfurt Deposit, Saxony-Anhalt, Germany
Source: Michael Scott
Description: Blue to colorless cube
x	intensity
399.193	0.000443747
408.835	0.00189492
418.477	0.0017103
428.12	0.00145089
437.762	0.00161572
447.404	0.00102911
457.047	0.00105985
466.689	0.000729058
476.331	0.00152042
485.974	0.00189855
495.616	0.001448
505.258	0.00224664
514.901	0.00215337
524.543	0.00220703
534.185	0.00218046
543.828	0.00220989
553.47	0.00236465
563.112	0.00269074
572.755	0.00283414
582.397	0.00258722
592.039	0.00302029
601.682	0.00283674
611.324	0.00284134
620.966	0.00318598
630.609	0.00319866
640.251	0.00318246
649.893	0.0032344
659.536	0.00327431
669.178	0.0034717
678.82	0.00356555
688.463	0.00352196
698.105	0.00363645
707.747	0.00389368
717.39	0.00359145
727.032	0.00393818
736.674	0.00404734
746.317	0.00408374
755.959	0.0041244
765.601	0.00414055
775.244	0.00403416
784.886	0.00438484
794.528	0.0044706
804.171	0.00444545
813.813	0.00472812
823.455	0.00479512
833.098	0.00482299
842.74	0.00495078
852.382	0.00499094
862.025	0.00507328
871.667	0.00504089
881.309	0.00515484
890.952	0.00525768
900.594	0.00521489
910.236	0.00526039
919.879	0.00541911
929.521	0.00554061
939.163	0.00543807
948.806	0.00550461
958.448	0.00564906
968.09	0.00580088
977.733	0.00587764
987.375	0.0060713
997.017	0.0062074
1006.66	0.00632726
1016.3	0.00649471
1025.94	0.0064783
1035.59	0.00670275
1045.23	0.00679106
1054.87	0.00685187
1064.51	0.0067654
1074.16	0.0068879
1083.8	0.0068567
1093.44	0.00691539
1103.08	0.00682838
1112.72	0.00673087
1122.37	0.00680919
1132.01	0.00687685
1141.65	0.0069899
1151.3	0.00697842
1160.94	0.0069922
1170.58	0.00711914
1180.22	0.00702517
1189.86	0.00710091
1199.51	0.00718497
1209.15	0.00728745
1218.79	0.00755341
1228.43	0.00755624
1238.08	0.00765046
1247.72	0.00778964
1257.36	0.00783555
1267	0.00778842
1276.64	0.00807182
1286.29	0.00801902
1295.93	0.00837825
1305.57	0.00815811
1315.21	0.00840116
1324.86	0.0084901
1334.5	0.00842411
1344.14	0.00842393
1353.78	0.00847717
1363.43	0.00850895
1373.07	0.00887437
1382.71	0.00876559
1392.35	0.00896193
1401.99	0.00912914
1411.64	0.00899112
1421.28	0.00921412
1430.92	0.00931831
1440.57	0.00932529
1450.21	0.00937464
1459.85	0.00939755
1469.49	0.0094312
1479.13	0.00965491
1488.78	0.00988097
1498.42	0.00994622
1508.06	0.0100822
1517.7	0.00999361
1527.35	0.0101772
1536.99	0.0101122
1546.63	0.0101632
1556.27	0.0103869
1565.91	0.0103815
1575.56	0.0105729
1585.2	0.0105039
1594.84	0.0106599
1604.48	0.0109248
1614.13	0.0111799
1623.77	0.0113225
1633.41	0.0114374
1643.05	0.0114082
1652.7	0.0119078
1662.34	0.0114384
1671.98	0.0114828
1681.62	0.0114991
1691.27	0.01147
1700.91	0.011858
1710.55	0.0116018
1720.19	0.0116583
1729.84	0.0116462
1739.48	0.0111424
1749.12	0.0109379
1758.76	0.0110784
1768.4	0.0112548
1778.05	0.0113949
1787.69	0.0114861
1797.33	0.0112676
1806.97	0.011441
1816.62	0.0113051
1826.26	0.0119624
1835.9	0.0115721
1845.54	0.0115591
1855.18	0.0122475
1864.83	0.0121773
1874.47	0.0119846
1884.11	0.0122196
1893.75	0.012112
1903.4	0.0121589
1913.04	0.0123454
1922.68	0.012094
1932.32	0.0116633
1941.97	0.0118352
1951.61	0.012462
1961.25	0.0113733
1970.89	0.0115129
1980.54	0.0140982
1990.18	0.0123688
1999.82	0.0122897
2009.46	0.0128525
2019.11	0.0118518
2028.75	0.0124023
2038.39	0.0139792
2048.03	0.0144645
2057.67	0.0138824
2067.32	0.0144902
2076.96	0.0146732
2086.6	0.0137838
2096.24	0.014022
2105.89	0.0144608
2115.53	0.014528
2125.17	0.0139046
2134.81	0.0126416
2144.45	0.0124668
2154.1	0.0130838
2163.74	0.0154258
2173.38	0.0147839
2183.02	0.0146894
2192.67	0.015196
2202.31	0.0150459
2211.95	0.0150869
2221.59	0.0151229
2231.24	0.015014
2240.88	0.015025
2250.52	0.0149513
2260.16	0.0158445
2269.8	0.0157711
2279.45	0.0162031
2289.09	0.0168258
2298.73	0.0166178
2308.38	0.0168014
2318.02	0.0171006
2327.66	0.0164873
2337.3	0.0165085
2346.94	0.0164707
2356.59	0.0163355
2366.23	0.0158846
2375.87	0.0160157
2385.51	0.0160751
2395.16	0.0160204
2404.8	0.0159895
2414.44	0.0162521
2424.08	0.0164374
2433.72	0.0165693
2443.37	0.0164565
2453.01	0.0168209
2462.65	0.0165186
2472.29	0.0166377
2481.94	0.0166351
2491.58	0.0165042
2501.22	0.0165398
2510.86	0.0166208
2520.51	0.0170351
2530.15	0.0170473
2539.79	0.0165975
2549.43	0.0168821
2559.07	0.0169594
2568.72	0.017151
2578.36	0.0171605
2588	0.0177009
2597.64	0.0173019
2607.29	0.0175539
2616.93	0.0177449
2626.57	0.0178733
2636.21	0.017881
2645.86	0.0181154
2655.5	0.0179519
2665.14	0.0177243
2674.78	0.0179092
2684.43	0.0177866
2694.07	0.0176975
2703.71	0.0178191
2713.35	0.0179208
2722.99	0.01806
2732.64	0.0180526
2742.28	0.0181591
2751.92	0.0180836
2761.56	0.0180345
2771.21	0.0181366
2780.85	0.0179046
2790.49	0.0181867
2800.13	0.0181945
2809.78	0.018245
2819.42	0.0184202
2829.06	0.0184673
2838.7	0.0186128
2848.34	0.0180466
2857.99	0.0180927
2867.63	0.0182496
2877.27	0.0184138
2886.91	0.0179421
2896.56	0.0188036
2906.2	0.0184087
2915.84	0.0181638
2925.48	0.0178934
2935.13	0.0181424
2944.77	0.0178874
2954.41	0.0185977
2964.05	0.0184261
2973.7	0.0184668
2983.34	0.0183525
2992.98	0.0185402
3002.62	0.0184749
3012.26	0.0183823
3021.91	0.0185096
3031.55	0.0193154
3041.19	0.0188825
3050.83	0.0187987
3060.48	0.0193398
3070.12	0.0193412
3079.76	0.018999
3089.4	0.0195562
3099.05	0.0194311
3108.69	0.0203056
3118.33	0.0196163
3127.97	0.0195851
3137.61	0.0198249
3147.26	0.019832
3156.9	0.0201847
3166.54	0.0200944
3176.18	0.0204164
3185.83	0.0199575
3195.47	0.0203468
3205.11	0.0206528
3214.75	0.0204169
3224.4	0.0206472
3234.04	0.0207928
3243.68	0.0200164
3253.32	0.0206999
3262.97	0.0203738
3272.61	0.0206987
3282.25	0.0209053
3291.89	0.0209652
3301.53	0.0208356
3311.18	0.0216916
3320.82	0.0208668
3330.46	0.0213697
3340.1	0.0211222
3349.75	0.0214632
3359.39	0.0215681
3369.03	0.0216358
3378.67	0.0216365
3388.32	0.0218938
3397.96	0.0216797
3407.6	0.0220761
3417.24	0.0217578
3426.89	0.0214274
3436.53	0.0219875
3446.17	0.0223755
3455.81	0.0218017
3465.45	0.0220429
3475.1	0.0221214
3484.74	0.0216516
3494.38	0.0221259
3504.02	0.0222918
3513.67	0.022195
3523.31	0.0218709
3532.95	0.0217854
3542.59	0.0226974
3552.24	0.0218777
3561.88	0.0219771
3571.52	0.0212016
3581.16	0.0221826
3590.8	0.0218825
3600.45	0.0213496
3610.09	0.0216285
3619.73	0.0222609
3629.37	0.0224846
3639.02	0.0214614
3648.66	0.0219511
3658.3	0.0223877
3667.94	0.0216975
3677.59	0.0227103
3687.23	0.0231488
3696.87	0.0216432
3706.51	0.0221516
3716.16	0.0220561
3725.8	0.0220765
3735.44	0.022742
3745.08	0.0232187
3754.72	0.022107
3764.37	0.0229456
3774.01	0.0223857
3783.65	0.0230547
3793.29	0.0234175
3802.94	0.0228022
3812.58	0.0228511
3822.22	0.0225383
3831.86	0.0231116
3841.51	0.0232557
3851.15	0.0229419
3860.79	0.0229766
3870.43	0.0236672
3880.07	0.0234066
3889.72	0.023172
3899.36	0.0228106
3909	0.0233836
3918.64	0.023004
3928.29	0.0233837
3937.93	0.0233447
3947.57	0.0228345
3957.21	0.0234416
3966.86	0.023259
3976.5	0.0230672
3986.14	0.0239331
3995.78	0.023711
