Measurement: Infrared, Infrared Data Processed
Mineral: Hambergite
Rruff sample: R050603
Ideal chemistry: Be_2_BO_3_(OH)
Locality: Momeik, Burma
Source: Bill Larson
Description: Colorless fragment from a striated prismatic crystal
x	intensity
399.193	0.12119
408.835	0.0892821
418.477	0.127719
428.12	0.117553
437.762	0.166548
447.404	0.13957
457.047	0.0563996
466.689	0.0728086
476.331	0.0754765
485.974	0.0837581
495.616	0.0885937
505.258	0.0949144
514.901	0.101086
524.543	0.106329
534.185	0.11158
543.828	0.119091
553.47	0.129733
563.112	0.12945
572.755	0.127636
582.397	0.141607
592.039	0.157611
601.682	0.17594
611.324	0.146064
620.966	0.165278
630.609	0.183472
640.251	0.207907
649.893	0.210126
659.536	0.168296
669.178	0.198084
678.82	0.221943
688.463	0.244135
698.105	0.264725
707.747	0.26929
717.39	0.290803
727.032	0.283612
736.674	0.296706
746.317	0.268709
755.959	0.259369
765.601	0.257977
775.244	0.224527
784.886	0.17619
794.528	0.208745
804.171	0.17138
813.813	0.176746
823.455	0.209538
833.098	0.193641
842.74	0.177104
852.382	0.170662
862.025	0.154275
871.667	0.12955
881.309	0.107299
890.952	0.0888051
900.594	0.0740578
910.236	0.0625704
919.879	0.0485731
929.521	0.0400665
939.163	0.0251798
948.806	0.0178703
958.448	0.016058
968.09	0.0151227
977.733	0.0151113
987.375	0.0153849
997.017	0.0162873
1006.66	0.0191361
1016.3	0.0227251
1025.94	0.0232085
1035.59	0.0205174
1045.23	0.020484
1054.87	0.0213928
1064.51	0.0221164
1074.16	0.0241982
1083.8	0.0281727
1093.44	0.0316032
1103.08	0.0348534
1112.72	0.0388971
1122.37	0.0484683
1132.01	0.0705619
1141.65	0.115147
1151.3	0.162728
1160.94	0.151644
1170.58	0.107193
1180.22	0.0632468
1189.86	0.0437368
1199.51	0.0384358
1209.15	0.0388297
1218.79	0.0426815
1228.43	0.0515805
1238.08	0.0648121
1247.72	0.0838584
1257.36	0.110574
1267	0.147472
1276.64	0.196781
1286.29	0.255454
1295.93	0.281052
1305.57	0.260557
1315.21	0.225385
1324.86	0.19295
1334.5	0.166305
1344.14	0.146259
1353.78	0.130974
1363.43	0.119139
1373.07	0.107927
1382.71	0.099559
1392.35	0.0944815
1401.99	0.0837931
1411.64	0.0782566
1421.28	0.0736426
1430.92	0.0556029
1440.57	0.0346255
1450.21	0.0174996
1459.85	0.0110147
1469.49	0.00851023
1479.13	0.00749762
1488.78	0.00626258
1498.42	0.00591614
1508.06	0.00471277
1517.7	0.00430355
1527.35	0.0035783
1536.99	0.00323663
1546.63	0.00286137
1556.27	0.00265164
1565.91	0.00250833
1575.56	0.0023006
1585.2	0.00209127
1594.84	0.00179398
1604.48	0.00164185
1614.13	0.00132366
1623.77	0.00112294
1633.41	0.00103263
1643.05	0.000242467
1652.7	0.000426875
1662.34	-0.000170067
1671.98	-0.000277831
1681.62	-0.000394384
1691.27	-3.77129e-05
1700.91	-0.000769392
1710.55	-0.00104576
1720.19	-0.00123029
1729.84	-0.00104312
1739.48	-0.00234295
1749.12	-0.00216606
1758.76	-0.00149876
1768.4	-0.000816957
1778.05	-0.000737838
1787.69	-0.000572398
1797.33	-0.000630291
1806.97	-0.00127939
1816.62	-0.00051363
1826.26	-0.000868044
1835.9	-0.000359794
1845.54	0.000109405
1855.18	-0.000809764
1864.83	-0.000129623
1874.47	0.00122963
1884.11	0.000416815
1893.75	0.000233392
1903.4	0.00125498
1913.04	-0.000700128
1922.68	-0.000735101
1932.32	-0.000312643
1941.97	-0.000786639
1951.61	0.00139959
1961.25	0.000320757
1970.89	0.000428499
1980.54	0.002071
1990.18	5.18984e-05
1999.82	-0.0015258
2009.46	0.000928042
2019.11	0.00215505
2028.75	-0.00495592
2038.39	-0.00126358
2048.03	0.000304674
2057.67	-0.000810963
2067.32	0.0015715
2076.96	-0.000313205
2086.6	0.0019558
2096.24	0.000471318
2105.89	0.00115861
2115.53	-0.000972488
2125.17	0.00140106
2134.81	0.00225721
2144.45	-0.000398956
2154.1	-0.00127587
2163.74	0.00264778
2173.38	-0.00131735
2183.02	0.00194455
2192.67	0.00331251
2202.31	0.0013328
2211.95	4.9326e-05
2221.59	0.000873709
2231.24	0.000353745
2240.88	0.00118745
2250.52	-0.000854484
2260.16	0.00225043
2269.8	0.00124939
2279.45	0.00301798
2289.09	0.00133481
2298.73	0.00217814
2308.38	-7.85478e-05
2318.02	0.00106685
2327.66	0.000773086
2337.3	0.00128166
2346.94	0.00129411
2356.59	0.00288291
2366.23	0.00142557
2375.87	0.00198366
2385.51	0.00119952
2395.16	0.00241268
2404.8	0.00112969
2414.44	0.00259056
2424.08	0.00161349
2433.72	0.000943657
2443.37	0.00116774
2453.01	0.00176153
2462.65	-0.000152821
2472.29	-0.0010378
2481.94	0.000172793
2491.58	0.000355215
2501.22	-0.000484962
2510.86	-0.00144481
2520.51	0.000158856
2530.15	-0.00206967
2539.79	-0.00335221
2549.43	-0.00323759
2559.07	-0.00354756
2568.72	-0.00297359
2578.36	-0.00336121
2588	-0.00393807
2597.64	-0.00285633
2607.29	-0.00319744
2616.93	-0.00196123
2626.57	-0.000261579
2636.21	0.000440758
2645.86	-0.000286638
2655.5	9.44143e-05
2665.14	-0.000159118
2674.78	-0.000964563
2684.43	0.000793667
2694.07	0.000884954
2703.71	0.000843096
2713.35	0.000470937
2722.99	0.000444479
2732.64	0.000644085
2742.28	0.000736129
2751.92	0.00278328
2761.56	0.000879811
2771.21	0.0011408
2780.85	0.00276041
2790.49	0.00141789
2800.13	0.00117659
2809.78	0.00161308
2819.42	0.000410593
2829.06	0.000570105
2838.7	0.000548033
2848.34	-0.000548075
2857.99	0.0023351
2867.63	4.33833e-06
2877.27	0.00213987
2886.91	0.00301691
2896.56	0.00185556
2906.2	0.00122313
2915.84	0.000730559
2925.48	0.00255032
2935.13	0.00208478
2944.77	0.00341982
2954.41	0.00312975
2964.05	0.00327757
2973.7	0.00415914
2983.34	0.00356255
2992.98	0.0042679
3002.62	0.0037342
3012.26	0.00434737
3021.91	0.00276844
3031.55	0.00405103
3041.19	0.0050108
3050.83	0.00191919
3060.48	0.00661443
3070.12	0.0045677
3079.76	0.00392802
3089.4	0.00469536
3099.05	0.00448918
3108.69	0.00644804
3118.33	0.00485305
3127.97	0.00560267
3137.61	0.005912
3147.26	0.00489597
3156.9	0.00655319
3166.54	0.00692325
3176.18	0.00629918
3185.83	0.00695152
3195.47	0.00740338
3205.11	0.00666309
3214.75	0.00680954
3224.4	0.00674773
3234.04	0.0113599
3243.68	0.00875162
3253.32	0.0129906
3262.97	0.0131045
3272.61	0.013848
3282.25	0.0135731
3291.89	0.0146481
3301.53	0.0138035
3311.18	0.0146852
3320.82	0.0149862
3330.46	0.0136947
3340.1	0.020805
3349.75	0.0208452
3359.39	0.0248693
3369.03	0.0330669
3378.67	0.0424773
3388.32	0.0647198
3397.96	0.102938
3407.6	0.0901417
3417.24	0.0429861
3426.89	0.0259657
3436.53	0.0220544
3446.17	0.025024
3455.81	0.0388191
3465.45	0.0802088
3475.1	0.0543539
3484.74	0.0156049
3494.38	0.00802677
3504.02	0.00532215
3513.67	0.00554651
3523.31	0.00276121
3532.95	0.0063709
3542.59	0.0022724
3552.24	0.00344398
3561.88	0.00531492
3571.52	0.0062526
3581.16	0.00142978
3590.8	0.005907
3600.45	-0.000223309
3610.09	0.00381539
3619.73	-0.000320077
3629.37	2.38108e-05
3639.02	0.0045283
3648.66	0.00545375
3658.3	0.00170495
3667.94	0.00186676
3677.59	-0.00093629
3687.23	0.00244398
3696.87	0.000342647
3706.51	-2.14919e-05
3716.16	0.00397896
3725.8	0.00146565
3735.44	0.00359778
3745.08	0.00319671
3754.72	0.00371124
3764.37	0.00401345
3774.01	-0.000603997
3783.65	0.00189992
3793.29	0.00503089
3802.94	0.00477372
3812.58	0.00154759
3822.22	0.00970059
3831.86	0.00163218
3841.51	0.00540587
3851.15	0.00294476
3860.79	0.00237441
3870.43	0.0016341
3880.07	0.00924557
3889.72	0.00628475
3899.36	0.00546654
3909	0.00358997
3918.64	0.00697124
3928.29	-0.0013106
3937.93	0.0053265
3947.57	0.0100594
3957.21	0.000338844
3966.86	0.00244951
3976.5	0.00126797
3986.14	0.00597052
3995.78	0.00399954
