Measurement: Infrared, Infrared Data Processed
Mineral: Hambergite
Rruff sample: R050672
Ideal chemistry: Be_2_BO_3_(OH)
Locality: Anjanabonoina, Madagascar
Source: University of Arizona Mineral Museum
Description: Pale gray prismatic crystal
x	intensity
399.193	0.245077
408.835	0.195792
418.477	0.237829
428.12	0.22855
437.762	0.321096
447.404	0.231939
457.047	0.0783197
466.689	0.104682
476.331	0.119053
485.974	0.141731
495.616	0.159617
505.258	0.177318
514.901	0.194502
524.543	0.211723
534.185	0.229263
543.828	0.245842
553.47	0.259993
563.112	0.26278
572.755	0.269871
582.397	0.302431
592.039	0.334985
601.682	0.33121
611.324	0.308116
620.966	0.340618
630.609	0.374127
640.251	0.414463
649.893	0.38676
659.536	0.336744
669.178	0.397619
678.82	0.440471
688.463	0.476806
698.105	0.509132
707.747	0.506941
717.39	0.530594
727.032	0.506467
736.674	0.49971
746.317	0.430078
755.959	0.417515
765.601	0.402782
775.244	0.325196
784.886	0.266737
794.528	0.31297
804.171	0.26163
813.813	0.276445
823.455	0.320029
833.098	0.289205
842.74	0.261946
852.382	0.245455
862.025	0.216933
871.667	0.175678
881.309	0.141332
890.952	0.114309
900.594	0.0943402
910.236	0.0780956
919.879	0.0606719
929.521	0.0497197
939.163	0.0297742
948.806	0.0208169
958.448	0.0173474
968.09	0.0160771
977.733	0.0151697
987.375	0.015224
997.017	0.0159395
1006.66	0.0195571
1016.3	0.0246084
1025.94	0.0244367
1035.59	0.0189404
1045.23	0.0175675
1054.87	0.017527
1064.51	0.0177308
1074.16	0.0191022
1083.8	0.0216547
1093.44	0.0269671
1103.08	0.0376779
1112.72	0.0432126
1122.37	0.0611186
1132.01	0.104934
1141.65	0.189446
1151.3	0.261125
1160.94	0.230829
1170.58	0.151496
1180.22	0.0857449
1189.86	0.0597757
1199.51	0.0535728
1209.15	0.0565979
1218.79	0.0659127
1228.43	0.0817648
1238.08	0.105928
1247.72	0.141457
1257.36	0.193098
1267	0.265712
1276.64	0.363141
1286.29	0.466426
1295.93	0.48633
1305.57	0.430085
1315.21	0.361536
1324.86	0.302875
1334.5	0.258259
1344.14	0.226018
1353.78	0.200376
1363.43	0.181678
1373.07	0.163977
1382.71	0.150476
1392.35	0.141935
1401.99	0.12611
1411.64	0.117493
1421.28	0.109728
1430.92	0.0826716
1440.57	0.0512447
1450.21	0.0259148
1459.85	0.0163446
1469.49	0.0130445
1479.13	0.0108871
1488.78	0.00927233
1498.42	0.0083538
1508.06	0.00767341
1517.7	0.00674213
1527.35	0.00584611
1536.99	0.0054444
1546.63	0.0048506
1556.27	0.00476996
1565.91	0.00426517
1575.56	0.00402525
1585.2	0.00346241
1594.84	0.00299148
1604.48	0.00254723
1614.13	0.0029669
1623.77	0.00205133
1633.41	0.00174068
1643.05	0.000977995
1652.7	0.00161188
1662.34	0.000217544
1671.98	-1.54009e-05
1681.62	-0.000245735
1691.27	-0.000388692
1700.91	-0.000278806
1710.55	-0.00124801
1720.19	-0.00113702
1729.84	-0.00116451
1739.48	-0.00190724
1749.12	-0.00156388
1758.76	-0.0017377
1768.4	-0.0015596
1778.05	-0.00170755
1787.69	-0.00160043
1797.33	-0.00202758
1806.97	-0.00198298
1816.62	-0.00208301
1826.26	-0.00128464
1835.9	-0.00233819
1845.54	-0.000970295
1855.18	-0.00152068
1864.83	-0.00153777
1874.47	-0.0011825
1884.11	-0.00231026
1893.75	-0.00152887
1903.4	-0.00203909
1913.04	-0.0014663
1922.68	-0.00138834
1932.32	-0.00278
1941.97	-0.0030728
1951.61	-0.00290924
1961.25	-0.00299174
1970.89	-0.0031008
1980.54	-0.0027131
1990.18	-0.00315105
1999.82	-0.00401533
2009.46	-0.00439827
2019.11	-0.00323792
2028.75	-0.002962
2038.39	-0.00234674
2048.03	-0.00309369
2057.67	-0.00357598
2067.32	-0.0023204
2076.96	-0.00106715
2086.6	-0.00259282
2096.24	-0.00114261
2105.89	-0.00215418
2115.53	-0.000707277
2125.17	-0.00176258
2134.81	-0.00326165
2144.45	-0.00175495
2154.1	-0.00636817
2163.74	-0.0037044
2173.38	-0.00443062
2183.02	-0.00346244
2192.67	-0.00164299
2202.31	-0.00266579
2211.95	-0.00358295
2221.59	-0.00276577
2231.24	-0.00319021
2240.88	-0.00206009
2250.52	-0.00186922
2260.16	-0.00194061
2269.8	-0.00233042
2279.45	-0.00208168
2289.09	-0.00163225
2298.73	-0.00131574
2308.38	-0.0027877
2318.02	-0.000990684
2327.66	-0.000885929
2337.3	0.000632917
2346.94	-0.00023583
2356.59	0.00174039
2366.23	0.00150015
2375.87	-0.000967357
2385.51	-0.000418599
2395.16	-0.000619943
2404.8	8.78118e-05
2414.44	-0.00110094
2424.08	-0.00111023
2433.72	-0.0024189
2443.37	-9.39116e-06
2453.01	-0.00143668
2462.65	-0.00202122
2472.29	-0.00285527
2481.94	-0.00358383
2491.58	-0.00488158
2501.22	-0.00416496
2510.86	-0.00520315
2520.51	-0.00625471
2530.15	-0.00621445
2539.79	-0.0074743
2549.43	-0.00768699
2559.07	-0.00840171
2568.72	-0.00821372
2578.36	-0.00900499
2588	-0.00766634
2597.64	-0.00661993
2607.29	-0.00580948
2616.93	-0.00565161
2626.57	-0.00484686
2636.21	-0.00395224
2645.86	-0.00349334
2655.5	-0.00296725
2665.14	-0.00266873
2674.78	-0.00242654
2684.43	-0.00273925
2694.07	-0.00209711
2703.71	-0.00182852
2713.35	-0.00170138
2722.99	-0.000788474
2732.64	-0.000917573
2742.28	-0.00124063
2751.92	-0.00127332
2761.56	-0.00152765
2771.21	-0.00147613
2780.85	-0.000935051
2790.49	-0.0014418
2800.13	-0.0021517
2809.78	-0.00157962
2819.42	-0.00186975
2829.06	-0.0020301
2838.7	-0.00189559
2848.34	-0.00243744
2857.99	-0.00185382
2867.63	-0.0014864
2877.27	-0.000530907
2886.91	-0.000679541
2896.56	-0.00021295
2906.2	-6.95224e-05
2915.84	0.000523464
2925.48	0.000664359
2935.13	0.0007442
2944.77	0.000741763
2954.41	0.00118876
2964.05	-0.000183543
2973.7	0.00130501
2983.34	0.00119228
2992.98	0.00223214
3002.62	0.00163304
3012.26	0.000852942
3021.91	0.00244129
3031.55	0.00300832
3041.19	0.00197116
3050.83	0.0026502
3060.48	0.0047435
3070.12	0.00276818
3079.76	0.00392684
3089.4	0.00360325
3099.05	0.00305441
3108.69	0.00443271
3118.33	0.00440686
3127.97	0.00428313
3137.61	0.0035789
3147.26	0.00388583
3156.9	0.00499027
3166.54	0.00556952
3176.18	0.00727872
3185.83	0.00567657
3195.47	0.00911757
3205.11	0.00635911
3214.75	0.00637182
3224.4	0.00885257
3234.04	0.00726663
3243.68	0.00948731
3253.32	0.0123499
3262.97	0.012449
3272.61	0.0133804
3282.25	0.0153344
3291.89	0.0146028
3301.53	0.0156597
3311.18	0.0156971
3320.82	0.0144826
3330.46	0.017407
3340.1	0.0191056
3349.75	0.0197901
3359.39	0.0254664
3369.03	0.0345566
3378.67	0.0503646
3388.32	0.0784507
3397.96	0.12357
3407.6	0.124223
3417.24	0.0724073
3426.89	0.0408828
3436.53	0.0310684
3446.17	0.0347559
3455.81	0.0540005
3465.45	0.0968532
3475.1	0.0866723
3484.74	0.0256165
3494.38	0.0100849
3504.02	0.00585247
3513.67	0.0052098
3523.31	0.00195106
3532.95	0.00526694
3542.59	0.00849169
3552.24	0.004659
3561.88	0.00243288
3571.52	0.00164424
3581.16	0.00191134
3590.8	0.0065143
3600.45	0.00761237
3610.09	0.00204762
3619.73	-0.00254299
3629.37	-0.00028486
3639.02	-0.0034838
3648.66	-0.000479155
3658.3	-0.00127224
3667.94	-0.000860227
3677.59	0.000756644
3687.23	-0.00208584
3696.87	-0.00500311
3706.51	-0.00168913
3716.16	-0.00146693
3725.8	-0.00158113
3735.44	-0.00142644
3745.08	-0.000865296
3754.72	-0.00238542
3764.37	-0.00380317
3774.01	0.00151078
3783.65	-0.00216468
3793.29	-0.000885856
3802.94	0.000920483
3812.58	-0.00432909
3822.22	-0.000797929
3831.86	0.000134462
3841.51	-0.000570265
3851.15	-0.00019063
3860.79	0.0012659
3870.43	0.000636078
3880.07	0.000256759
3889.72	-0.00206549
3899.36	-0.00024146
3909	-0.00184079
3918.64	-0.000103869
3928.29	-0.00062036
3937.93	-0.00012643
3947.57	-0.000961887
3957.21	-0.000731092
3966.86	-0.00289931
3976.5	-0.0009904
3986.14	-0.001944
3995.78	3.40262e-05
