Measurement: Infrared, Infrared Data Processed
Mineral: Harmotome
Rruff sample: R070016
Ideal chemistry: Ba_2_(Si_12_Al_4_)O_32_12H_2_O
Locality: Idar-Oberstein, Germany
Source: Michael Scott
Description: Colorless to milky-white prismatic crystals
x	intensity
374.123	0.180494
383.765	0.173639
393.407	0.187702
403.05	0.162407
412.692	0.170525
422.334	0.171859
431.976	0.157694
441.619	0.149212
451.261	0.138701
460.904	0.126822
470.546	0.106579
480.188	0.0904562
489.83	0.077246
499.473	0.0666377
509.115	0.0611397
518.758	0.0608133
528.4	0.0570554
538.042	0.0532805
547.684	0.0512716
557.327	0.0531543
566.969	0.0548713
576.611	0.0588332
586.254	0.0654136
595.896	0.0717605
605.538	0.0779229
615.181	0.0777414
624.823	0.06858
634.466	0.0571607
644.108	0.0485711
653.75	0.044171
663.393	0.0445413
673.035	0.0480759
682.677	0.0544163
692.319	0.0638759
701.962	0.0605097
711.604	0.0599621
721.246	0.0596105
730.889	0.0589275
740.531	0.0577022
750.173	0.0547905
759.816	0.0534097
769.458	0.057024
779.101	0.0599147
788.743	0.0553753
798.385	0.0558045
808.028	0.0341458
817.67	0.0225497
827.312	0.019649
836.955	0.0197622
846.597	0.0217685
856.239	0.0243414
865.881	0.0274879
875.524	0.0316802
885.166	0.0363635
894.808	0.0429215
904.451	0.0508476
914.093	0.0622723
923.736	0.0783419
933.378	0.101521
943.02	0.132496
952.663	0.171189
962.305	0.214032
971.947	0.250161
981.59	0.270493
991.232	0.277348
1000.87	0.276663
1010.52	0.270623
1020.16	0.257771
1029.8	0.23714
1039.44	0.212234
1049.09	0.186475
1058.73	0.158102
1068.37	0.130965
1078.01	0.117927
1087.65	0.112039
1097.3	0.105597
1106.94	0.099265
1116.58	0.0925591
1126.22	0.0868091
1135.87	0.0810965
1145.51	0.0748708
1155.15	0.0662094
1164.79	0.0593692
1174.44	0.0478342
1184.08	0.0371454
1193.72	0.0282541
1203.36	0.0209419
1213.01	0.0151434
1222.65	0.0108087
1232.29	0.00858862
1241.93	0.00703928
1251.58	0.00560053
1261.22	0.00475767
1270.86	0.00420322
1280.5	0.00362726
1290.14	0.00346128
1299.79	0.00278683
1309.43	0.00278963
1319.07	0.00240687
1328.71	0.00227417
1338.36	0.00221094
1348	0.002183
1357.64	0.00207527
1367.28	0.00191964
1376.92	0.00216986
1386.57	0.00173063
1396.21	0.00186807
1405.85	0.0019611
1415.49	0.00197466
1425.14	0.00202025
1434.78	0.00226779
1444.42	0.00218514
1454.06	0.00213168
1463.71	0.0021982
1473.35	0.00208081
1482.99	0.00215748
1492.63	0.00218342
1502.28	0.0023398
1511.92	0.00223169
1521.56	0.00248947
1531.2	0.00266033
1540.85	0.00288487
1550.49	0.00319274
1560.13	0.00374545
1569.77	0.0043177
1579.41	0.00504372
1589.06	0.00642052
1598.7	0.00832852
1608.34	0.0108186
1617.98	0.0152525
1627.63	0.0209257
1637.27	0.0253156
1646.91	0.0256343
1656.55	0.0222292
1666.19	0.0153141
1675.84	0.00906457
1685.48	0.00540964
1695.12	0.00379669
1704.77	0.00277169
1714.41	0.00217106
1724.05	0.00184707
1733.69	0.00112261
1743.33	0.00049466
1752.98	0.000488081
1762.62	0.000566848
1772.26	0.000660524
1781.9	0.000461764
1791.55	0.00048257
1801.19	0.000403263
1810.83	4.38075e-05
1820.47	-2.42649e-05
1830.12	1.95523e-05
1839.76	-0.000283386
1849.4	-0.000292164
1859.04	-3.57065e-05
1868.68	-0.00060906
1878.33	-0.000220492
1887.97	-0.00060337
1897.61	-0.00131086
1907.25	-0.000949454
1916.9	-0.00156774
1926.54	-0.00189131
1936.18	-0.00213427
1945.82	-0.00295489
1955.46	-0.00219688
1965.11	-0.00241869
1974.75	-0.0021945
1984.39	-0.000896995
1994.04	-0.00199604
2003.68	-0.00188571
2013.32	-0.00102556
2022.96	-0.00208123
2032.6	-0.000569677
2042.25	-0.000117186
2051.89	-0.000313409
2061.53	-0.00144917
2071.17	0.000295509
2080.82	0.000199597
2090.46	-0.000810314
2100.1	-0.000868379
2109.74	-0.000757657
2119.39	-1.33661e-05
2129.03	-0.00175462
2138.67	-0.00083187
2148.31	0.00157774
2157.95	0.00132627
2167.6	0.00329572
2177.24	0.00206099
2186.88	0.00141843
2196.52	0.00283164
2206.17	0.00142772
2215.81	0.00117645
2225.45	0.00121674
2235.09	0.00214538
2244.74	0.00175753
2254.38	0.00111339
2264.02	0.00124212
2273.66	0.00228593
2283.3	0.0019627
2292.95	0.00127086
2302.59	0.00126959
2312.23	0.00103496
2321.87	0.0020356
2331.52	0.000279553
2341.16	-0.000340164
2350.8	-0.000278244
2360.44	-0.000709338
2370.09	-0.000780333
2379.73	9.56871e-05
2389.37	0.00015319
2399.01	6.11549e-06
2408.66	0.000123592
2418.3	0.000757961
2427.94	0.000300644
2437.58	0.000756796
2447.22	0.000888629
2456.87	0.000662478
2466.51	0.00026186
2476.15	0.000260496
2485.79	0.000469683
2495.44	0.000518667
2505.08	0.000886602
2514.72	-0.000178371
2524.36	0.000365229
2534.01	0.000705064
2543.65	0.0011802
2553.29	0.00085954
2562.93	0.000774514
2572.57	0.00122237
2582.22	0.0017331
2591.86	0.00165378
2601.5	0.00183813
2611.14	0.0017353
2620.79	0.00226018
2630.43	0.00254784
2640.07	0.00253182
2649.71	0.00208588
2659.36	0.00201823
2669	0.00132741
2678.64	0.00133617
2688.28	0.00139135
2697.93	0.00103668
2707.57	0.00111256
2717.21	0.00124105
2726.85	0.0013261
2736.49	0.00146049
2746.14	0.00138903
2755.78	0.00172787
2765.42	0.00172842
2775.06	0.00154045
2784.71	0.00188969
2794.35	0.00123702
2803.99	0.00167557
2813.63	0.0019984
2823.28	0.00225322
2832.92	0.00257099
2842.56	0.00270011
2852.2	0.00306127
2861.84	0.00316554
2871.49	0.0028311
2881.13	0.0029675
2890.77	0.00321058
2900.41	0.00373071
2910.06	0.00409713
2919.7	0.00491953
2929.34	0.0044914
2938.98	0.0037667
2948.62	0.00376313
2958.27	0.00369251
2967.91	0.00344379
2977.55	0.00332365
2987.2	0.00343082
2996.84	0.00354431
3006.48	0.00359402
3016.12	0.00362035
3025.76	0.00394799
3035.41	0.00400108
3045.05	0.00496535
3054.69	0.00489459
3064.33	0.00548396
3073.98	0.00620163
3083.62	0.00610886
3093.26	0.00681403
3102.9	0.00700977
3112.55	0.00740343
3122.19	0.00777402
3131.83	0.00850118
3141.47	0.00870143
3151.11	0.00898117
3160.76	0.00996391
3170.4	0.0112414
3180.04	0.0115908
3189.68	0.0121376
3199.33	0.0131616
3208.97	0.0136231
3218.61	0.0144653
3228.25	0.0165332
3237.9	0.0175226
3247.54	0.0179472
3257.18	0.0185865
3266.82	0.0187732
3276.47	0.0192811
3286.11	0.0187693
3295.75	0.01946
3305.39	0.0201911
3315.03	0.0212165
3324.68	0.0219088
3334.32	0.0226896
3343.96	0.0239677
3353.6	0.0254916
3363.25	0.0274213
3372.89	0.0279151
3382.53	0.0283848
3392.17	0.0294282
3401.82	0.0302404
3411.46	0.0310058
3421.1	0.0302202
3430.74	0.0303405
3440.39	0.0308818
3450.03	0.0302557
3459.67	0.0292839
3469.31	0.0285935
3478.95	0.0286943
3488.6	0.0279967
3498.24	0.0278438
3507.88	0.0271027
3517.52	0.0264042
3527.17	0.0254657
3536.81	0.024207
3546.45	0.0247707
3556.09	0.0235975
3565.74	0.0226398
3575.38	0.0219246
3585.02	0.0208204
3594.66	0.0203669
3604.3	0.0188113
3613.95	0.0163128
3623.59	0.0124312
3633.23	0.00915355
3642.87	0.00523629
3652.52	0.0036631
3662.16	0.000747896
3671.8	-0.00022324
3681.44	-0.000848656
3691.09	-0.00264405
3700.73	-0.00173113
3710.37	-0.00211166
3720.01	-0.00292669
3729.66	-0.00196373
3739.3	-0.00221246
3748.94	-0.00142305
3758.58	-0.00149907
3768.22	-0.0019127
3777.87	-0.00205192
3787.51	-0.00159476
3797.15	-0.00149465
3806.79	-0.00217882
3816.44	-0.00264421
3826.08	-0.00224338
3835.72	-0.00156413
3845.36	-0.00182311
3855.01	-0.00154714
3864.65	-0.00144296
3874.29	-0.00280972
3883.93	-0.0026027
3893.57	-0.00267898
3903.22	-0.0021024
3912.86	-0.00175898
3922.5	-0.00349648
3932.14	-0.00190151
3941.79	-0.00174031
3951.43	-0.00305496
3961.07	-0.00269704
3970.71	-0.00315642
3980.36	-0.00369694
3990	-0.00294283
3999.64	-0.00253898
