Measurement: Infrared, Infrared Data Processed
Mineral: Harmotome
Rruff sample: R070015
Ideal chemistry: Ba_2_(Si_12_Al_4_)O_32_12H_2_O
Locality: Old Kilpatrick, Dumbartonshire, Scotland
Source: Michael Scott
Description: Colorless blocky crystals
Measured chemistry: (Ba_1.98_Ti_0.02_)_Σ=2_(Si_11.67_Al_4.33_)O_32_·12H_2_OK_0.16_Na_0.11_Ca_0.01_; H_2_O estimated by difference
x	intensity
399.193	0.273673
408.835	0.26728
418.477	0.239824
428.12	0.216337
437.762	0.187045
447.404	0.167306
457.047	0.148361
466.689	0.129899
476.331	0.108181
485.974	0.0933677
495.616	0.0843062
505.258	0.0791022
514.901	0.0787676
524.543	0.0785684
534.185	0.0805293
543.828	0.0837251
553.47	0.0869312
563.112	0.0899513
572.755	0.0942784
582.397	0.102439
592.039	0.113357
601.682	0.124197
611.324	0.129169
620.966	0.117405
630.609	0.0972284
640.251	0.0788461
649.893	0.0682814
659.536	0.0656686
669.178	0.067518
678.82	0.0726486
688.463	0.0804276
698.105	0.0859168
707.747	0.0884012
717.39	0.0883964
727.032	0.0857797
736.674	0.0814273
746.317	0.0748509
755.959	0.0661373
765.601	0.0604735
775.244	0.0572745
784.886	0.0541817
794.528	0.0536665
804.171	0.0439042
813.813	0.0349184
823.455	0.0273484
833.098	0.0256906
842.74	0.0269207
852.382	0.0295422
862.025	0.0333217
871.667	0.0372043
881.309	0.0416027
890.952	0.0470017
900.594	0.054707
910.236	0.0659323
919.879	0.082861
929.521	0.111094
939.163	0.154706
948.806	0.22067
958.448	0.307723
968.09	0.39694
977.733	0.457622
987.375	0.47756
997.017	0.469358
1006.66	0.447153
1016.3	0.412878
1025.94	0.366748
1035.59	0.314528
1045.23	0.264048
1054.87	0.216631
1064.51	0.173243
1074.16	0.145436
1083.8	0.130934
1093.44	0.122518
1103.08	0.116344
1112.72	0.111246
1122.37	0.107247
1132.01	0.103162
1141.65	0.0983277
1151.3	0.0905955
1160.94	0.0791653
1170.58	0.0646417
1180.22	0.0511949
1189.86	0.0395685
1199.51	0.0294154
1209.15	0.0221759
1218.79	0.0177186
1228.43	0.0141948
1238.08	0.0115104
1247.72	0.00944745
1257.36	0.00796208
1267	0.0070901
1276.64	0.00653846
1286.29	0.00622046
1295.93	0.00572052
1305.57	0.00535752
1315.21	0.00509109
1324.86	0.00493726
1334.5	0.00459315
1344.14	0.00439667
1353.78	0.00440734
1363.43	0.00434908
1373.07	0.00434613
1382.71	0.00434863
1392.35	0.00442063
1401.99	0.00450549
1411.64	0.00425104
1421.28	0.00455595
1430.92	0.00459492
1440.57	0.00460273
1450.21	0.00465582
1459.85	0.00468979
1469.49	0.00440919
1479.13	0.00453697
1488.78	0.0045309
1498.42	0.00454682
1508.06	0.00453431
1517.7	0.00440667
1527.35	0.00464628
1536.99	0.00481097
1546.63	0.00523455
1556.27	0.00561871
1565.91	0.00639698
1575.56	0.0077703
1585.2	0.00905764
1594.84	0.0117364
1604.48	0.0154567
1614.13	0.0217463
1623.77	0.0312966
1633.41	0.0412081
1643.05	0.0460731
1652.7	0.0442652
1662.34	0.032598
1671.98	0.019843
1681.62	0.0117922
1691.27	0.00759727
1700.91	0.00594288
1710.55	0.00480199
1720.19	0.00391704
1729.84	0.00342653
1739.48	0.00267173
1749.12	0.00187564
1758.76	0.00218071
1768.4	0.00202663
1778.05	0.00222834
1787.69	0.00197882
1797.33	0.00177344
1806.97	0.00143412
1816.62	0.000810599
1826.26	0.00155618
1835.9	0.00110672
1845.54	0.000997669
1855.18	0.000879382
1864.83	0.00082572
1874.47	0.000320369
1884.11	1.48535e-05
1893.75	0.000445723
1903.4	-0.000467404
1913.04	-0.000608263
1922.68	-0.00112859
1932.32	-0.00201891
1941.97	-0.000871505
1951.61	-0.00110385
1961.25	-0.00101615
1970.89	-0.00277295
1980.54	0.000176942
1990.18	-0.001124
1999.82	-0.000262633
2009.46	-0.00039709
2019.11	-0.000443
2028.75	-0.00114597
2038.39	-0.00111816
2048.03	8.88354e-05
2057.67	0.000151448
2067.32	-3.07611e-05
2076.96	0.000831201
2086.6	0.000366327
2096.24	0.000749066
2105.89	0.00145927
2115.53	0.00195989
2125.17	0.000811001
2134.81	0.000416655
2144.45	0.000882334
2154.1	0.00225553
2163.74	0.00560415
2173.38	0.00283598
2183.02	0.00417997
2192.67	0.00295212
2202.31	0.00324547
2211.95	0.00290521
2221.59	0.00244987
2231.24	0.00386116
2240.88	0.00371811
2250.52	0.00296634
2260.16	0.00203532
2269.8	0.00313059
2279.45	0.00277225
2289.09	0.00298797
2298.73	0.00197567
2308.38	0.00183438
2318.02	0.00251753
2327.66	0.00128672
2337.3	0.00158186
2346.94	0.00177906
2356.59	0.00168247
2366.23	0.00151205
2375.87	0.00161856
2385.51	0.00180805
2395.16	0.00166858
2404.8	0.00141507
2414.44	0.00230931
2424.08	0.00178895
2433.72	0.0017841
2443.37	0.0020872
2453.01	0.00245493
2462.65	0.00231183
2472.29	0.00214455
2481.94	0.0024711
2491.58	0.00221713
2501.22	0.00234315
2510.86	0.00300709
2520.51	0.00350749
2530.15	0.00237633
2539.79	0.00248848
2549.43	0.00243226
2559.07	0.00300611
2568.72	0.00317264
2578.36	0.00356708
2588	0.00366157
2597.64	0.00325318
2607.29	0.00342723
2616.93	0.00386732
2626.57	0.00385525
2636.21	0.00420551
2645.86	0.00417722
2655.5	0.00424875
2665.14	0.00359291
2674.78	0.00357805
2684.43	0.00373261
2694.07	0.00375201
2703.71	0.00402904
2713.35	0.00428328
2722.99	0.00400171
2732.64	0.00414033
2742.28	0.00444921
2751.92	0.0041067
2761.56	0.00461064
2771.21	0.00438234
2780.85	0.00476058
2790.49	0.00496657
2800.13	0.00549947
2809.78	0.00510972
2819.42	0.00583742
2829.06	0.00529056
2838.7	0.00578751
2848.34	0.00440564
2857.99	0.00497197
2867.63	0.00559029
2877.27	0.00657092
2886.91	0.00617986
2896.56	0.00643252
2906.2	0.00630598
2915.84	0.00458347
2925.48	0.00508839
2935.13	0.00637279
2944.77	0.00687259
2954.41	0.00780305
2964.05	0.00809199
2973.7	0.00879575
2983.34	0.00905782
2992.98	0.00860413
3002.62	0.00922471
3012.26	0.0102939
3021.91	0.0105951
3031.55	0.0106194
3041.19	0.0111906
3050.83	0.011695
3060.48	0.0124547
3070.12	0.0130751
3079.76	0.0132387
3089.4	0.013722
3099.05	0.0147291
3108.69	0.0151834
3118.33	0.016661
3127.97	0.0164888
3137.61	0.0179391
3147.26	0.0191555
3156.9	0.0202286
3166.54	0.0215785
3176.18	0.0231822
3185.83	0.0243452
3195.47	0.0255657
3205.11	0.0275512
3214.75	0.0294949
3224.4	0.0310572
3234.04	0.0332098
3243.68	0.0342191
3253.32	0.0356564
3262.97	0.036334
3272.61	0.037116
3282.25	0.0380132
3291.89	0.0380951
3301.53	0.0392744
3311.18	0.0398824
3320.82	0.0422805
3330.46	0.0447082
3340.1	0.047585
3349.75	0.0497836
3359.39	0.0515247
3369.03	0.0541302
3378.67	0.056439
3388.32	0.0577125
3397.96	0.0592965
3407.6	0.0599792
3417.24	0.0604861
3426.89	0.0607646
3436.53	0.0605112
3446.17	0.0589114
3455.81	0.0598319
3465.45	0.0587389
3475.1	0.0579367
3484.74	0.0573723
3494.38	0.0560157
3504.02	0.0562542
3513.67	0.0548454
3523.31	0.0544262
3532.95	0.0529717
3542.59	0.0530201
3552.24	0.0508703
3561.88	0.0493013
3571.52	0.0491998
3581.16	0.0469533
3590.8	0.0447499
3600.45	0.0440265
3610.09	0.0403845
3619.73	0.0358384
3629.37	0.0297792
3639.02	0.0228292
3648.66	0.0167466
3658.3	0.0120101
3667.94	0.00985696
3677.59	0.00736919
3687.23	0.00604093
3696.87	0.00522305
3706.51	0.00456098
3716.16	0.00411626
3725.8	0.00445394
3735.44	0.00402318
3745.08	0.00576179
3754.72	0.00307101
3764.37	0.00370293
3774.01	0.00418332
3783.65	0.00332587
3793.29	0.0038076
3802.94	0.00472248
3812.58	0.00439438
3822.22	0.00397426
3831.86	0.00371063
3841.51	0.00437229
3851.15	0.00483967
3860.79	0.00420106
3870.43	0.00489462
3880.07	0.00346076
3889.72	0.00467245
3899.36	0.00480467
3909	0.00333468
3918.64	0.00502531
3928.29	0.0039136
3937.93	0.00347922
3947.57	0.0046361
3957.21	0.00447689
3966.86	0.0030671
3976.5	0.00519978
3986.14	0.00411135
3995.78	0.00391032
