Measurement: Infrared, Infrared Data Processed
Mineral: Hastingsite
Rruff sample: R070194
Ideal chemistry: NaCa_2_(Fe^2+^_4_Fe^3+^)(Si_6_Al_2_)O_22_(OH)_2_
Locality: Seglenge, Sweden
Source: California Institute of Technology
Description: Black cleavage fragment
Measured chemistry: (Na_0.39_K_0.32_[box]_0.29_)_Σ=1_(Ca_1.75_Na_0.25_)_Σ=2_((Fe^2+^_3.52_Mg_0.34_Mn_0.12_)_Σ=3.98_(Fe^3+^_0.66_Ti_0.24_Al_0.12_)_Σ=1.02_)_Σ=5_(Si_6.28_Al_1.64_)O_22_((OH)_1.79_F_0.17_Cl_0.04_)_Σ=2_; (OH) estimated by difference
x	intensity
374.123	0.166655
383.765	0.148314
393.407	0.152439
403.05	0.163829
412.692	0.166674
422.334	0.167073
431.976	0.177611
441.619	0.18481
451.261	0.181429
460.904	0.161955
470.546	0.139502
480.188	0.129563
489.83	0.130279
499.473	0.126481
509.115	0.11929
518.758	0.114031
528.4	0.102446
538.042	0.083925
547.684	0.067063
557.327	0.0557991
566.969	0.0504354
576.611	0.0499795
586.254	0.0564241
595.896	0.0636335
605.538	0.0639683
615.181	0.0610605
624.823	0.0606966
634.466	0.0599173
644.108	0.0610337
653.75	0.062116
663.393	0.0632689
673.035	0.0629223
682.677	0.0611239
692.319	0.0601587
701.962	0.0585588
711.604	0.061588
721.246	0.0658829
730.889	0.0682258
740.531	0.0682291
750.173	0.068733
759.816	0.0699476
769.458	0.0700769
779.101	0.0697622
788.743	0.0677337
798.385	0.0676277
808.028	0.0732879
817.67	0.0859364
827.312	0.105475
836.955	0.127215
846.597	0.147123
856.239	0.160389
865.881	0.168573
875.524	0.177293
885.166	0.185728
894.808	0.199791
904.451	0.216091
914.093	0.225912
923.736	0.230129
933.378	0.229733
943.02	0.224369
952.663	0.21577
962.305	0.204642
971.947	0.191486
981.59	0.175472
991.232	0.156169
1000.87	0.136133
1010.52	0.120136
1020.16	0.109369
1029.8	0.104021
1039.44	0.098964
1049.09	0.091067
1058.73	0.0817324
1068.37	0.0728254
1078.01	0.0654231
1087.65	0.0565257
1097.3	0.0479866
1106.94	0.0380734
1116.58	0.0287678
1126.22	0.0207925
1135.87	0.0136387
1145.51	0.00982838
1155.15	0.00847598
1164.79	0.00706029
1174.44	0.00569379
1184.08	0.00553133
1193.72	0.00494873
1203.36	0.00352579
1213.01	0.00361928
1222.65	0.003884
1232.29	0.00331232
1241.93	0.00315122
1251.58	0.00276664
1261.22	0.00213281
1270.86	0.00182327
1280.5	0.00210764
1290.14	0.00231283
1299.79	0.00236254
1309.43	0.00257035
1319.07	0.00244682
1328.71	0.00273219
1338.36	0.00290466
1348	0.00301986
1357.64	0.00332029
1367.28	0.00398391
1376.92	0.00437949
1386.57	0.00492758
1396.21	0.00608324
1405.85	0.00692624
1415.49	0.007885
1425.14	0.00838137
1434.78	0.00902541
1444.42	0.00915203
1454.06	0.00926248
1463.71	0.00910095
1473.35	0.00852969
1482.99	0.00809205
1492.63	0.0083028
1502.28	0.0083235
1511.92	0.00702726
1521.56	0.00679834
1531.2	0.0062783
1540.85	0.00657825
1550.49	0.00643278
1560.13	0.00667283
1569.77	0.00656469
1579.41	0.00673673
1589.06	0.00672304
1598.7	0.00667164
1608.34	0.00677248
1617.98	0.00676124
1627.63	0.00667231
1637.27	0.00701357
1646.91	0.00688745
1656.55	0.00684337
1666.19	0.00657903
1675.84	0.00660489
1685.48	0.00658374
1695.12	0.00655206
1704.77	0.00657729
1714.41	0.00668639
1724.05	0.0068414
1733.69	0.00721087
1743.33	0.00600484
1752.98	0.0059808
1762.62	0.00658583
1772.26	0.00697236
1781.9	0.00635505
1791.55	0.00600383
1801.19	0.00535861
1810.83	0.00502684
1820.47	0.00490159
1830.12	0.00458825
1839.76	0.00459489
1849.4	0.00469188
1859.04	0.0046394
1868.68	0.0045999
1878.33	0.00412088
1887.97	0.0037551
1897.61	0.00392142
1907.25	0.00424924
1916.9	0.00486131
1926.54	0.00430081
1936.18	0.0037705
1945.82	0.00351857
1955.46	0.00326733
1965.11	0.00336927
1974.75	0.003905
1984.39	0.00555752
1994.04	0.00513837
2003.68	0.00488733
2013.32	0.00540755
2022.96	0.00621327
2032.6	0.00721111
2042.25	0.00740105
2051.89	0.00784881
2061.53	0.00635518
2071.17	0.0071354
2080.82	0.00641939
2090.46	0.00627083
2100.1	0.00745584
2109.74	0.00763566
2119.39	0.00740356
2129.03	0.00753773
2138.67	0.00675309
2148.31	0.00678542
2157.95	0.00860147
2167.6	0.00997694
2177.24	0.0106427
2186.88	0.0101165
2196.52	0.0103735
2206.17	0.0112044
2215.81	0.0103541
2225.45	0.0111065
2235.09	0.0122926
2244.74	0.0118943
2254.38	0.0112095
2264.02	0.0122096
2273.66	0.0128402
2283.3	0.0120494
2292.95	0.0123113
2302.59	0.0117738
2312.23	0.0111996
2321.87	0.0125615
2331.52	0.0108216
2341.16	0.0109652
2350.8	0.0108543
2360.44	0.0112432
2370.09	0.0110516
2379.73	0.0112975
2389.37	0.0118011
2399.01	0.0116725
2408.66	0.0124231
2418.3	0.0120692
2427.94	0.0113781
2437.58	0.0114566
2447.22	0.0121589
2456.87	0.011946
2466.51	0.0121144
2476.15	0.0119114
2485.79	0.0118633
2495.44	0.0120424
2505.08	0.0114549
2514.72	0.0122167
2524.36	0.0125931
2534.01	0.0123094
2543.65	0.0133198
2553.29	0.0127472
2562.93	0.0135154
2572.57	0.0132794
2582.22	0.0139578
2591.86	0.0137537
2601.5	0.0139873
2611.14	0.0138542
2620.79	0.0144896
2630.43	0.0145281
2640.07	0.01453
2649.71	0.0146489
2659.36	0.0144519
2669	0.0141365
2678.64	0.0142435
2688.28	0.0147902
2697.93	0.0146662
2707.57	0.0146795
2717.21	0.014589
2726.85	0.0146175
2736.49	0.0146307
2746.14	0.0146633
2755.78	0.0148918
2765.42	0.0154436
2775.06	0.0152521
2784.71	0.0151305
2794.35	0.0153652
2803.99	0.0152361
2813.63	0.0162308
2823.28	0.015483
2832.92	0.0161593
2842.56	0.0163011
2852.2	0.0169796
2861.84	0.0168193
2871.49	0.0164144
2881.13	0.0166417
2890.77	0.0167383
2900.41	0.0174034
2910.06	0.0177833
2919.7	0.0191779
2929.34	0.0187613
2938.98	0.0173816
2948.62	0.0173073
2958.27	0.0179428
2967.91	0.0170278
2977.55	0.0168292
2987.2	0.016158
2996.84	0.015934
3006.48	0.0157575
3016.12	0.0158951
3025.76	0.0169743
3035.41	0.0162618
3045.05	0.0166515
3054.69	0.0174063
3064.33	0.0169204
3073.98	0.0174821
3083.62	0.0174641
3093.26	0.0170855
3102.9	0.0179057
3112.55	0.0174045
3122.19	0.0177965
3131.83	0.0181269
3141.47	0.0186223
3151.11	0.0181937
3160.76	0.0190248
3170.4	0.0185399
3180.04	0.0184365
3189.68	0.0187045
3199.33	0.0187033
3208.97	0.0187874
3218.61	0.0197743
3228.25	0.019526
3237.9	0.0190294
3247.54	0.0197743
3257.18	0.0187146
3266.82	0.0197203
3276.47	0.0193309
3286.11	0.0190296
3295.75	0.0194978
3305.39	0.0200885
3315.03	0.0199495
3324.68	0.0195511
3334.32	0.0204915
3343.96	0.0196412
3353.6	0.0204199
3363.25	0.019915
3372.89	0.0201961
3382.53	0.0203482
3392.17	0.0205399
3401.82	0.0202121
3411.46	0.0202765
3421.1	0.0208751
3430.74	0.020866
3440.39	0.0203292
3450.03	0.0195623
3459.67	0.0198917
3469.31	0.0206267
3478.95	0.0204338
3488.6	0.0202655
3498.24	0.0205807
3507.88	0.0202914
3517.52	0.0207128
3527.17	0.0211038
3536.81	0.0208853
3546.45	0.0208031
3556.09	0.0202611
3565.74	0.021318
3575.38	0.0194315
3585.02	0.0202808
3594.66	0.0204222
3604.3	0.0205938
3613.95	0.0218888
3623.59	0.0211124
3633.23	0.0189377
3642.87	0.019828
3652.52	0.0202804
3662.16	0.0192755
3671.8	0.0200711
3681.44	0.0178114
3691.09	0.0183464
3700.73	0.0167319
3710.37	0.0171348
3720.01	0.0164881
3729.66	0.0166772
3739.3	0.0179738
3748.94	0.0181211
3758.58	0.0177397
3768.22	0.0184577
3777.87	0.0179519
3787.51	0.018598
3797.15	0.0178057
3806.79	0.018676
3816.44	0.0184337
3826.08	0.0173862
3835.72	0.019221
3845.36	0.0170573
3855.01	0.0187988
3864.65	0.0189431
3874.29	0.0195529
3883.93	0.0181101
3893.57	0.0178547
3903.22	0.0188705
3912.86	0.0170725
3922.5	0.0185957
3932.14	0.0183874
3941.79	0.0174179
3951.43	0.017532
3961.07	0.0182903
3970.71	0.0175049
3980.36	0.0184703
3990	0.0179543
3999.64	0.0187805
