Measurement: Infrared, Infrared Data Processed
Mineral: Hastingsite
Rruff sample: R070124
Ideal chemistry: NaCa_2_(Fe^2+^_4_Fe^3+^)(Si_6_Al_2_)O_22_(OH)_2_
Locality: Clea Claims, Pelly River area, Yukon Territory, Canada
Source: Mark Mauthner
Description: Loose black bladed crystals
Measured chemistry: ([box]_0.48_Na_0.28_K_0.24_)_Σ=1_(Ca_1.85_Na_0.15_)_Σ=2_((Fe^2+^_3.06_Mg_0.68_Mn_0.04_Ti_0.07_)_Σ=3.97_(Fe^3+^_0.63_Al_0.40_)_Σ=1.03_)_Σ=5_(Si_6.46_Al_1.54_)O_22_((OH)_1.75_F_0.21_Cl_0.04_)_Σ=2_; (OH) estimated by difference
x	intensity
374.123	0.200827
383.765	0.240889
393.407	0.242349
403.05	0.237269
412.692	0.242467
422.334	0.265892
431.976	0.263009
441.619	0.267814
451.261	0.261756
460.904	0.233405
470.546	0.199677
480.188	0.178148
489.83	0.174249
499.473	0.165219
509.115	0.152494
518.758	0.142307
528.4	0.130133
538.042	0.112406
547.684	0.0940158
557.327	0.0780213
566.969	0.0672951
576.611	0.0619064
586.254	0.0652231
595.896	0.0746902
605.538	0.0812493
615.181	0.0835612
624.823	0.0852849
634.466	0.0829679
644.108	0.0840251
653.75	0.0857539
663.393	0.0875714
673.035	0.0900454
682.677	0.0900983
692.319	0.0912596
701.962	0.0855147
711.604	0.0836897
721.246	0.0873012
730.889	0.0956998
740.531	0.104536
750.173	0.107533
759.816	0.103539
769.458	0.105744
779.101	0.108207
788.743	0.103637
798.385	0.103961
808.028	0.0980413
817.67	0.103118
827.312	0.117394
836.955	0.137872
846.597	0.159555
856.239	0.176549
865.881	0.189391
875.524	0.201148
885.166	0.216629
894.808	0.240006
904.451	0.265738
914.093	0.286121
923.736	0.302227
933.378	0.311632
943.02	0.310635
952.663	0.30265
962.305	0.290389
971.947	0.274155
981.59	0.25354
991.232	0.22669
1000.87	0.197339
1010.52	0.173772
1020.16	0.157757
1029.8	0.148204
1039.44	0.140869
1049.09	0.132808
1058.73	0.121506
1068.37	0.108279
1078.01	0.0998699
1087.65	0.0932216
1097.3	0.0843779
1106.94	0.0735037
1116.58	0.0629256
1126.22	0.0541883
1135.87	0.0431359
1145.51	0.0326561
1155.15	0.0260429
1164.79	0.0247519
1174.44	0.0212851
1184.08	0.0190638
1193.72	0.017147
1203.36	0.0144584
1213.01	0.0113893
1222.65	0.00926486
1232.29	0.00789019
1241.93	0.00677139
1251.58	0.00553957
1261.22	0.00470707
1270.86	0.00472861
1280.5	0.00455904
1290.14	0.00427703
1299.79	0.00426018
1309.43	0.00445289
1319.07	0.00445525
1328.71	0.00449066
1338.36	0.00458747
1348	0.00459153
1357.64	0.00479637
1367.28	0.00478618
1376.92	0.00510209
1386.57	0.0052154
1396.21	0.00565747
1405.85	0.00595603
1415.49	0.00645727
1425.14	0.00691326
1434.78	0.00710976
1444.42	0.00721268
1454.06	0.00737948
1463.71	0.00723627
1473.35	0.00728301
1482.99	0.00715857
1492.63	0.00743729
1502.28	0.00764094
1511.92	0.00774504
1521.56	0.0084137
1531.2	0.00864348
1540.85	0.00924589
1550.49	0.00957179
1560.13	0.0101248
1569.77	0.0106061
1579.41	0.0110994
1589.06	0.0117885
1598.7	0.0122416
1608.34	0.0133079
1617.98	0.0138525
1627.63	0.0143278
1637.27	0.0145326
1646.91	0.0138921
1656.55	0.0131021
1666.19	0.0123489
1675.84	0.0118219
1685.48	0.0111845
1695.12	0.0104033
1704.77	0.00999448
1714.41	0.009951
1724.05	0.0100081
1733.69	0.00925493
1743.33	0.00801296
1752.98	0.00770653
1762.62	0.00808825
1772.26	0.00799384
1781.9	0.00825449
1791.55	0.00813038
1801.19	0.0081832
1810.83	0.00832063
1820.47	0.00820092
1830.12	0.0079422
1839.76	0.00799179
1849.4	0.00854212
1859.04	0.00828216
1868.68	0.00839962
1878.33	0.00828155
1887.97	0.00823337
1897.61	0.00816418
1907.25	0.0073277
1916.9	0.00748377
1926.54	0.00711928
1936.18	0.00675722
1945.82	0.00664981
1955.46	0.00554441
1965.11	0.00454208
1974.75	0.00466844
1984.39	0.00721458
1994.04	0.00679318
2003.68	0.00437957
2013.32	0.00603618
2022.96	0.00605877
2032.6	0.00602872
2042.25	0.00722494
2051.89	0.00867724
2061.53	0.00770287
2071.17	0.00820727
2080.82	0.00855805
2090.46	0.00845486
2100.1	0.00877402
2109.74	0.00923194
2119.39	0.00850855
2129.03	0.00685473
2138.67	0.00645687
2148.31	0.0062322
2157.95	0.00459723
2167.6	0.011436
2177.24	0.00920417
2186.88	0.010931
2196.52	0.0104742
2206.17	0.0109281
2215.81	0.0115901
2225.45	0.0122398
2235.09	0.0118209
2244.74	0.0125975
2254.38	0.0127573
2264.02	0.0130156
2273.66	0.0143178
2283.3	0.0151441
2292.95	0.0147253
2302.59	0.0148751
2312.23	0.0150165
2321.87	0.0169306
2331.52	0.0149417
2341.16	0.0149927
2350.8	0.0146901
2360.44	0.0153575
2370.09	0.0151655
2379.73	0.0149409
2389.37	0.0146859
2399.01	0.0150356
2408.66	0.0159143
2418.3	0.015566
2427.94	0.016053
2437.58	0.0167834
2447.22	0.0172348
2456.87	0.0174531
2466.51	0.0173114
2476.15	0.0175464
2485.79	0.0174803
2495.44	0.0173982
2505.08	0.0174197
2514.72	0.0178113
2524.36	0.0178543
2534.01	0.0186852
2543.65	0.0182937
2553.29	0.0186584
2562.93	0.0185588
2572.57	0.0191775
2582.22	0.0195441
2591.86	0.0196252
2601.5	0.0197877
2611.14	0.019857
2620.79	0.0198923
2630.43	0.0201915
2640.07	0.0206183
2649.71	0.0208463
2659.36	0.0204738
2669	0.0198517
2678.64	0.0203161
2688.28	0.0206506
2697.93	0.0207332
2707.57	0.0212364
2717.21	0.0218156
2726.85	0.0221479
2736.49	0.022365
2746.14	0.0230119
2755.78	0.023166
2765.42	0.0240163
2775.06	0.0242944
2784.71	0.0246329
2794.35	0.0250136
2803.99	0.0253374
2813.63	0.0262941
2823.28	0.0264494
2832.92	0.0271571
2842.56	0.0278018
2852.2	0.027521
2861.84	0.0276863
2871.49	0.0289425
2881.13	0.0290633
2890.77	0.0293496
2900.41	0.0304895
2910.06	0.0306911
2919.7	0.0304604
2929.34	0.0307063
2938.98	0.0311802
2948.62	0.0316445
2958.27	0.0324553
2967.91	0.0324927
2977.55	0.0326046
2987.2	0.033061
2996.84	0.033342
3006.48	0.0335628
3016.12	0.0347192
3025.76	0.0345829
3035.41	0.0352509
3045.05	0.0357939
3054.69	0.0360851
3064.33	0.0366942
3073.98	0.0372319
3083.62	0.0377054
3093.26	0.03823
3102.9	0.0389341
3112.55	0.0388512
3122.19	0.0395796
3131.83	0.0401892
3141.47	0.0407307
3151.11	0.0411217
3160.76	0.0418681
3170.4	0.0424414
3180.04	0.0430337
3189.68	0.0428121
3199.33	0.0443146
3208.97	0.0443528
3218.61	0.04552
3228.25	0.0461141
3237.9	0.0460518
3247.54	0.0468144
3257.18	0.0469528
3266.82	0.0486288
3276.47	0.0487153
3286.11	0.0494645
3295.75	0.0507729
3305.39	0.0509118
3315.03	0.0514982
3324.68	0.0525567
3334.32	0.0534681
3343.96	0.0546131
3353.6	0.0549275
3363.25	0.0555921
3372.89	0.0560315
3382.53	0.055963
3392.17	0.0555817
3401.82	0.0558411
3411.46	0.0541652
3421.1	0.0526557
3430.74	0.051164
3440.39	0.0508754
3450.03	0.049682
3459.67	0.0485967
3469.31	0.0487785
3478.95	0.0484237
3488.6	0.048751
3498.24	0.0496724
3507.88	0.0496098
3517.52	0.0504959
3527.17	0.0510789
3536.81	0.0497286
3546.45	0.0489018
3556.09	0.0461939
3565.74	0.0434013
3575.38	0.0396388
3585.02	0.0369684
3594.66	0.0340927
3604.3	0.0318741
3613.95	0.0297962
3623.59	0.0278938
3633.23	0.0249615
3642.87	0.024118
3652.52	0.0213928
3662.16	0.0197295
3671.8	0.0188686
3681.44	0.0172558
3691.09	0.0165014
3700.73	0.0165663
3710.37	0.0163689
3720.01	0.0169012
3729.66	0.0174879
3739.3	0.0167227
3748.94	0.018044
3758.58	0.0170649
3768.22	0.0178485
3777.87	0.0179215
3787.51	0.0179965
3797.15	0.0179279
3806.79	0.0179113
3816.44	0.0181252
3826.08	0.0182514
3835.72	0.0185959
3845.36	0.0178866
3855.01	0.0183418
3864.65	0.0186597
3874.29	0.0181159
3883.93	0.01877
3893.57	0.0178135
3903.22	0.0187473
3912.86	0.0185642
3922.5	0.0182108
3932.14	0.0171693
3941.79	0.0175958
3951.43	0.0184088
3961.07	0.0184732
3970.71	0.0183589
3980.36	0.0184194
3990	0.0182008
3999.64	0.0182387
