Measurement: Infrared, Infrared Data Processed
Mineral: Hauyne
Rruff sample: R040023
Ideal chemistry: Na_3_Ca(Si_3_Al_3_)O_12_(S^6+^O_4_)
Locality: Cazadero river, Ovalle, Limar√≠ Province, Coquimbo, Chile
Source: University of Arizona Mineral Museum
Description: Blue fine-grained massive, associated with wollastonite and calcite
Measured chemistry: (Na_0.99_K_0.01_)_6_(Ca_0.99_Na_0.01_)_2_Al_6.00_Si_6.00_O_24_[(SO_4_)_0.67_S_0.32_Cl_0.01_]_2_
x	intensity
399.193	0
408.835	0.101062
418.477	0.114828
428.12	0.128538
437.762	0.143139
447.404	0.158676
457.047	0.154108
466.689	0.120105
476.331	0.105762
485.974	0.0815538
495.616	0.0655341
505.258	0.0582324
514.901	0.0547962
524.543	0.0423782
534.185	0.0368274
543.828	0.0366904
553.47	0.04068
563.112	0.0529887
572.755	0.0437701
582.397	0.0317298
592.039	0.0309511
601.682	0.0340851
611.324	0.038141
620.966	0.0410574
630.609	0.04173
640.251	0.0573319
649.893	0.0489527
659.536	0.038577
669.178	0.0367984
678.82	0.0428077
688.463	0.0388051
698.105	0.0378158
707.747	0.0363481
717.39	0.0341631
727.032	0.0339304
736.674	0.0301837
746.317	0.0254225
755.959	0.0231692
765.601	0.022465
775.244	0.0226694
784.886	0.0235659
794.528	0.0256329
804.171	0.0272703
813.813	0.0312185
823.455	0.0364357
833.098	0.0430759
842.74	0.0518528
852.382	0.0607322
862.025	0.0789116
871.667	0.124396
881.309	0.115827
890.952	0.114985
900.594	0.152049
910.236	0.147463
919.879	0.14701
929.521	0.155065
939.163	0.158355
948.806	0.152572
958.448	0.164019
968.09	0.169311
977.733	0.148789
987.375	0.151442
997.017	0.167051
1006.66	0.175961
1016.3	0.168589
1025.94	0.15253
1035.59	0.12544
1045.23	0.114037
1054.87	0.110589
1064.51	0.100687
1074.16	0.0860577
1083.8	0.0782217
1093.44	0.0768131
1103.08	0.0679399
1112.72	0.0568015
1122.37	0.0474834
1132.01	0.0418169
1141.65	0.0387272
1151.3	0.0362922
1160.94	0.0324682
1170.58	0.0276919
1180.22	0.0227994
1189.86	0.0174599
1199.51	0.0138652
1209.15	0.0113637
1218.79	0.0101347
1228.43	0.00912911
1238.08	0.00850546
1247.72	0.00830798
1257.36	0.00796086
1267	0.00817176
1276.64	0.0086189
1286.29	0.00865203
1295.93	0.00919039
1305.57	0.0101442
1315.21	0.0111014
1324.86	0.0121763
1334.5	0.0134581
1344.14	0.0154474
1353.78	0.0180447
1363.43	0.0215291
1373.07	0.0265967
1382.71	0.0343893
1392.35	0.0482663
1401.99	0.0641508
1411.64	0.0840116
1421.28	0.0952951
1430.92	0.0984282
1440.57	0.0974238
1450.21	0.0939256
1459.85	0.0867215
1469.49	0.0787735
1479.13	0.0691724
1488.78	0.0597613
1498.42	0.0502803
1508.06	0.040287
1517.7	0.0312145
1527.35	0.0244195
1536.99	0.018968
1546.63	0.0158467
1556.27	0.0139456
1565.91	0.0135169
1575.56	0.0131186
1585.2	0.0132996
1594.84	0.0128712
1604.48	0.0121716
1614.13	0.0114296
1623.77	0.0106635
1633.41	0.00962339
1643.05	0.00835807
1652.7	0.00736521
1662.34	0.00737477
1671.98	0.00664965
1681.62	0.00674548
1691.27	0.0062197
1700.91	0.00558585
1710.55	0.00564098
1720.19	0.00466342
1729.84	0.00433513
1739.48	0.00402261
1749.12	0.0032323
1758.76	0.00383929
1768.4	0.00395799
1778.05	0.00376635
1787.69	0.00411534
1797.33	0.00535722
1806.97	0.00363515
1816.62	0.00288276
1826.26	0.00279496
1835.9	0.00289989
1845.54	0.00254321
1855.18	0.00297784
1864.83	0.00273446
1874.47	0.00317147
1884.11	0.002424
1893.75	0.00217494
1903.4	0.00149095
1913.04	0.00282973
1922.68	0.00166134
1932.32	0.000469857
1941.97	-1.5588e-05
1951.61	0.000828159
1961.25	-0.000224026
1970.89	-0.00415331
1980.54	0.00131357
1990.18	-0.00230014
1999.82	-0.000467831
2009.46	-0.00178864
2019.11	-0.00314024
2028.75	-0.000882643
2038.39	-1.08818e-05
2048.03	0.00128687
2057.67	0.00116292
2067.32	0.0025155
2076.96	0.00298874
2086.6	0.00218114
2096.24	0.000655135
2105.89	0.00227342
2115.53	0.00203832
2125.17	0.00161077
2134.81	0.00147508
2144.45	0.000880783
2154.1	-0.00122567
2163.74	0.00384325
2173.38	0.00157729
2183.02	0.00255381
2192.67	0.001686
2202.31	0.00287896
2211.95	0.00237783
2221.59	0.00564457
2231.24	0.00362561
2240.88	0.00607339
2250.52	0.00448288
2260.16	0.0044951
2269.8	0.00683152
2279.45	0.00746475
2289.09	0.00589173
2298.73	0.00646674
2308.38	0.00625042
2318.02	0.00733854
2327.66	0.0065441
2337.3	0.00583811
2346.94	0.00635261
2356.59	0.00668873
2366.23	0.00664232
2375.87	0.0071602
2385.51	0.00566168
2395.16	0.0054801
2404.8	0.00690722
2414.44	0.00622193
2424.08	0.00629181
2433.72	0.00688446
2443.37	0.00716075
2453.01	0.00726213
2462.65	0.00682294
2472.29	0.00785648
2481.94	0.00718165
2491.58	0.00678966
2501.22	0.00783024
2510.86	0.00876751
2520.51	0.00862216
2530.15	0.00773828
2539.79	0.0076441
2549.43	0.00820011
2559.07	0.00713564
2568.72	0.00779633
2578.36	0.00770872
2588	0.00777
2597.64	0.00672221
2607.29	0.00744427
2616.93	0.00737905
2626.57	0.00679117
2636.21	0.00759508
2645.86	0.00761151
2655.5	0.00773088
2665.14	0.00751041
2674.78	0.00619716
2684.43	0.00684728
2694.07	0.00638924
2703.71	0.00684962
2713.35	0.00695888
2722.99	0.00738774
2732.64	0.0069568
2742.28	0.00741043
2751.92	0.00628525
2761.56	0.00803164
2771.21	0.0069136
2780.85	0.00718817
2790.49	0.00603046
2800.13	0.00677335
2809.78	0.00597239
2819.42	0.00641863
2829.06	0.00621486
2838.7	0.0070144
2848.34	0.00723012
2857.99	0.00667283
2867.63	0.00672331
2877.27	0.00752762
2886.91	0.00655183
2896.56	0.00766483
2906.2	0.00722473
2915.84	0.00825279
2925.48	0.00754852
2935.13	0.00702154
2944.77	0.00703063
2954.41	0.00731193
2964.05	0.00875385
2973.7	0.00779967
2983.34	0.0090392
2992.98	0.00753736
3002.62	0.00877972
3012.26	0.00871994
3021.91	0.00832645
3031.55	0.00995173
3041.19	0.00931667
3050.83	0.0091396
3060.48	0.00861645
3070.12	0.0106422
3079.76	0.011203
3089.4	0.0120767
3099.05	0.0102464
3108.69	0.0114099
3118.33	0.0107417
3127.97	0.0110461
3137.61	0.0125168
3147.26	0.0117351
3156.9	0.0135572
3166.54	0.0112268
3176.18	0.0116292
3185.83	0.013063
3195.47	0.0130129
3205.11	0.0123061
3214.75	0.0136524
3224.4	0.0129538
3234.04	0.0136921
3243.68	0.0131235
3253.32	0.0137332
3262.97	0.0156678
3272.61	0.0144175
3282.25	0.01426
3291.89	0.0133599
3301.53	0.016281
3311.18	0.0145996
3320.82	0.0169162
3330.46	0.0155406
3340.1	0.0140144
3349.75	0.0158568
3359.39	0.0165754
3369.03	0.0164434
3378.67	0.0183816
3388.32	0.0170529
3397.96	0.0157434
3407.6	0.0167432
3417.24	0.0167575
3426.89	0.0167415
3436.53	0.0169355
3446.17	0.0159465
3455.81	0.0146267
3465.45	0.0164288
3475.1	0.0161923
3484.74	0.0153987
3494.38	0.0140461
3504.02	0.0132792
3513.67	0.0157309
3523.31	0.0148581
3532.95	0.0137942
3542.59	0.0136949
3552.24	0.0157616
3561.88	0.0146366
3571.52	0.0137909
3581.16	0.0124737
3590.8	0.0107621
3600.45	0.0118523
3610.09	0.010518
3619.73	0.0108708
3629.37	0.0107871
3639.02	0.00876051
3648.66	0.0118894
3658.3	0.00901685
3667.94	0.0090102
3677.59	0.0110364
3687.23	0.0102703
3696.87	0.0077121
3706.51	0.00808633
3716.16	0.00977488
3725.8	0.00922553
3735.44	0.00678189
3745.08	0.0100602
3754.72	0.00910298
3764.37	0.00675651
3774.01	0.0102761
3783.65	0.00650518
3793.29	0.00850465
3802.94	0.00845795
3812.58	0.0119031
3822.22	0.00979574
3831.86	0.00865159
3841.51	0.00963983
3851.15	0.00681882
3860.79	0.00807302
3870.43	0.00890221
3880.07	0.00754029
3889.72	0.0101706
3899.36	0.00684139
3909	0.00651339
3918.64	0.00971241
3928.29	0.0104542
3937.93	0.00996892
3947.57	0.00775567
3957.21	0.00729379
3966.86	0.0125398
3976.5	0.00847928
3986.14	0.00885216
3995.78	0.00789916
