Measurement: Infrared, Infrared Data Processed
Mineral: Hauyne
Rruff sample: R050606
Ideal chemistry: Na_3_Ca(Si_3_Al_3_)O_12_(S^6+^O_4_)
Locality: Ariccia, near Rome, Italy
Source: University of Arizona Mineral Museum
Description: Blue crystal embedded in calcite
x	intensity
399.193	0.230529
408.835	0.283655
418.477	0.309837
428.12	0.228533
437.762	0.268847
447.404	0.247513
457.047	0.169502
466.689	0.110674
476.331	0.0651917
485.974	0.0348695
495.616	0.0207411
505.258	0.0161172
514.901	0.0141534
524.543	0.0142904
534.185	0.0152899
543.828	0.0168803
553.47	0.0178974
563.112	0.0187491
572.755	0.0196499
582.397	0.0234612
592.039	0.0291954
601.682	0.0483647
611.324	0.0772752
620.966	0.073942
630.609	0.0779793
640.251	0.117233
649.893	0.120773
659.536	0.0821271
669.178	0.0583325
678.82	0.0657389
688.463	0.0956738
698.105	0.116156
707.747	0.0721014
717.39	0.0888431
727.032	0.0785403
736.674	0.0419431
746.317	0.0298132
755.959	0.0245849
765.601	0.022435
775.244	0.0220342
784.886	0.0210185
794.528	0.0218352
804.171	0.0230232
813.813	0.0249523
823.455	0.027183
833.098	0.0294346
842.74	0.0325579
852.382	0.0375428
862.025	0.0428208
871.667	0.0533148
881.309	0.0629581
890.952	0.0723679
900.594	0.0913822
910.236	0.119394
919.879	0.158863
929.521	0.208787
939.163	0.27058
948.806	0.337885
958.448	0.390972
968.09	0.419275
977.733	0.420222
987.375	0.404363
997.017	0.380211
1006.66	0.334301
1016.3	0.283858
1025.94	0.231222
1035.59	0.179104
1045.23	0.143659
1054.87	0.12382
1064.51	0.109632
1074.16	0.101671
1083.8	0.104676
1093.44	0.115234
1103.08	0.12326
1112.72	0.125962
1122.37	0.123419
1132.01	0.118427
1141.65	0.110692
1151.3	0.0966148
1160.94	0.0794041
1170.58	0.0614056
1180.22	0.0440939
1189.86	0.0296876
1199.51	0.0204737
1209.15	0.0157566
1218.79	0.0122892
1228.43	0.00860819
1238.08	0.00638222
1247.72	0.00474039
1257.36	0.00387104
1267	0.00307524
1276.64	0.00259991
1286.29	0.00232592
1295.93	0.00213577
1305.57	0.00194596
1315.21	0.00207137
1324.86	0.00215621
1334.5	0.00269782
1344.14	0.00282355
1353.78	0.00348768
1363.43	0.00431206
1373.07	0.00416093
1382.71	0.00510331
1392.35	0.00628653
1401.99	0.00799732
1411.64	0.0097043
1421.28	0.0110802
1430.92	0.0118127
1440.57	0.0120314
1450.21	0.0119437
1459.85	0.0115387
1469.49	0.0102874
1479.13	0.0100719
1488.78	0.00916029
1498.42	0.00806259
1508.06	0.00706822
1517.7	0.00614885
1527.35	0.00497008
1536.99	0.00454931
1546.63	0.00370767
1556.27	0.00390156
1565.91	0.00369746
1575.56	0.00349823
1585.2	0.00319419
1594.84	0.00279126
1604.48	0.00284369
1614.13	0.00293323
1623.77	0.00334629
1633.41	0.00367385
1643.05	0.00336995
1652.7	0.00444804
1662.34	0.00343662
1671.98	0.0036484
1681.62	0.00378817
1691.27	0.0038647
1700.91	0.0031156
1710.55	0.00301278
1720.19	0.00146169
1729.84	0.00147006
1739.48	-0.000407952
1749.12	-6.84422e-05
1758.76	0.000831569
1768.4	0.000906638
1778.05	0.000709885
1787.69	0.00100661
1797.33	0.000353884
1806.97	0.000750619
1816.62	8.02398e-05
1826.26	8.32679e-05
1835.9	-0.000332857
1845.54	0.00038742
1855.18	-0.00047367
1864.83	-0.000991111
1874.47	-0.000404786
1884.11	-0.00151971
1893.75	-0.00257665
1903.4	-0.00225599
1913.04	-0.00301875
1922.68	-0.00395772
1932.32	-0.004524
1941.97	-0.00539056
1951.61	-0.00410453
1961.25	-0.00829049
1970.89	-0.00718386
1980.54	-0.00749911
1990.18	-0.0063645
1999.82	-0.00636041
2009.46	-0.00750976
2019.11	-0.00531461
2028.75	-0.0102217
2038.39	-0.00742205
2048.03	-0.00310559
2057.67	-0.00420051
2067.32	-0.0021327
2076.96	-0.00170336
2086.6	0.000223618
2096.24	-0.0028694
2105.89	-0.000579101
2115.53	-0.000673096
2125.17	0.000169999
2134.81	-0.00287332
2144.45	-0.00389175
2154.1	-0.00679065
2163.74	-0.00151645
2173.38	-0.00278524
2183.02	-0.00158911
2192.67	-0.00192921
2202.31	-0.000994302
2211.95	-0.00532533
2221.59	-0.00360216
2231.24	-0.0025108
2240.88	-0.0015889
2250.52	-0.00211189
2260.16	0.000554855
2269.8	0.000639248
2279.45	0.0021028
2289.09	0.00355347
2298.73	0.002574
2308.38	0.00147152
2318.02	0.00371816
2327.66	0.00223144
2337.3	0.0030145
2346.94	0.00206197
2356.59	0.00319813
2366.23	0.00185653
2375.87	0.00170448
2385.51	0.00168757
2395.16	0.00245404
2404.8	0.00161542
2414.44	0.00328667
2424.08	0.00326564
2433.72	0.00234484
2443.37	0.00327188
2453.01	0.00374953
2462.65	0.00244067
2472.29	0.00229531
2481.94	0.00423436
2491.58	0.00399897
2501.22	0.00387495
2510.86	0.00374638
2520.51	0.00389075
2530.15	0.00250606
2539.79	0.00400979
2549.43	0.00255877
2559.07	0.00277482
2568.72	0.00338792
2578.36	0.00401195
2588	0.00487702
2597.64	0.00421145
2607.29	0.00287577
2616.93	0.00300324
2626.57	0.00495503
2636.21	0.00424645
2645.86	0.0049562
2655.5	0.00459955
2665.14	0.00406651
2674.78	0.00292827
2684.43	0.00421912
2694.07	0.00348949
2703.71	0.00285798
2713.35	0.00288735
2722.99	0.00367118
2732.64	0.00256284
2742.28	0.00380666
2751.92	0.00397073
2761.56	0.004193
2771.21	0.00509363
2780.85	0.00538518
2790.49	0.00371598
2800.13	0.00456781
2809.78	0.00323474
2819.42	0.00365687
2829.06	0.00359927
2838.7	0.00438213
2848.34	0.00454299
2857.99	0.00483671
2867.63	0.00227501
2877.27	0.00504098
2886.91	0.00539716
2896.56	0.00416238
2906.2	0.00299166
2915.84	0.00322719
2925.48	0.00541383
2935.13	0.00502655
2944.77	0.00518681
2954.41	0.0050875
2964.05	0.00669114
2973.7	0.00501292
2983.34	0.00461309
2992.98	0.00662939
3002.62	0.00636707
3012.26	0.00675285
3021.91	0.00557543
3031.55	0.00676616
3041.19	0.0053342
3050.83	0.00506817
3060.48	0.00817769
3070.12	0.00664947
3079.76	0.00627138
3089.4	0.00656316
3099.05	0.00682167
3108.69	0.00741942
3118.33	0.00442163
3127.97	0.00662748
3137.61	0.00797424
3147.26	0.00858806
3156.9	0.00806423
3166.54	0.00784731
3176.18	0.0070573
3185.83	0.0083144
3195.47	0.00997802
3205.11	0.00939097
3214.75	0.00864464
3224.4	0.00688708
3234.04	0.0104229
3243.68	0.00854886
3253.32	0.0115263
3262.97	0.00953283
3272.61	0.0102635
3282.25	0.00888435
3291.89	0.0108948
3301.53	0.0119601
3311.18	0.00913698
3320.82	0.0101755
3330.46	0.0123056
3340.1	0.0110543
3349.75	0.0101216
3359.39	0.0123983
3369.03	0.0127995
3378.67	0.0109835
3388.32	0.0118057
3397.96	0.0125765
3407.6	0.0105738
3417.24	0.011725
3426.89	0.0159614
3436.53	0.0109985
3446.17	0.010595
3455.81	0.0108712
3465.45	0.0117033
3475.1	0.0112557
3484.74	0.0119017
3494.38	0.0108343
3504.02	0.0105166
3513.67	0.0129633
3523.31	0.0121235
3532.95	0.0112798
3542.59	0.00819829
3552.24	0.0118557
3561.88	0.00982011
3571.52	0.0120267
3581.16	0.00430233
3590.8	0.0105454
3600.45	0.0078645
3610.09	0.0104677
3619.73	0.00819715
3629.37	0.00882679
3639.02	0.00775002
3648.66	0.00957278
3658.3	0.00528378
3667.94	0.00557465
3677.59	0.00440351
3687.23	0.00548333
3696.87	0.00434676
3706.51	0.00626662
3716.16	0.00749081
3725.8	0.00358243
3735.44	0.00947562
3745.08	0.00913852
3754.72	0.00631865
3764.37	0.00608022
3774.01	0.00305966
3783.65	0.00493221
3793.29	0.00692835
3802.94	0.00767396
3812.58	0.00362067
3822.22	0.0123456
3831.86	0.00368225
3841.51	0.00897245
3851.15	0.00487443
3860.79	0.00277325
3870.43	0.00314258
3880.07	0.00953554
3889.72	0.00246086
3899.36	0.00273586
3909	0.00504872
3918.64	0.00766367
3928.29	0.00536986
3937.93	0.0101099
3947.57	0.0080766
3957.21	0.00366657
3966.86	0.0101146
3976.5	0.00623785
3986.14	0.00884437
3995.78	0.00463941
