Measurement: Infrared, Infrared Data Processed
Mineral: Hedenbergite
Rruff sample: R060040
Ideal chemistry: CaFe^2+^Si_2_O_6_
Locality: Rio Marina, Elba, Italy
Source: University of Arizona Mineral Museum
Description: Radial aggregate of green thin bladed crystals
Measured chemistry: Ca_1.00_(Fe^2+^_0.89_Mg_0.09_Mn_0.02_)_Î£=1_Si_2.00_O_6_
x	intensity
399.193	0.169397
408.835	0.151699
418.477	0.148181
428.12	0.211078
437.762	0.261196
447.404	0.298541
457.047	0.3007
466.689	0.262329
476.331	0.217274
485.974	0.230633
495.616	0.222344
505.258	0.210562
514.901	0.182793
524.543	0.149815
534.185	0.117908
543.828	0.0895934
553.47	0.0641742
563.112	0.0459822
572.755	0.03906
582.397	0.0369687
592.039	0.0408323
601.682	0.0500803
611.324	0.0723538
620.966	0.107572
630.609	0.0980541
640.251	0.0540758
649.893	0.0398466
659.536	0.0505429
669.178	0.0741135
678.82	0.03995
688.463	0.030885
698.105	0.0295897
707.747	0.0306427
717.39	0.0320063
727.032	0.036352
736.674	0.0410249
746.317	0.0485712
755.959	0.0553293
765.601	0.0658633
775.244	0.0769089
784.886	0.0939756
794.528	0.114307
804.171	0.141425
813.813	0.176968
823.455	0.219069
833.098	0.271018
842.74	0.32912
852.382	0.36854
862.025	0.364411
871.667	0.332485
881.309	0.300123
890.952	0.277327
900.594	0.262255
910.236	0.248952
919.879	0.212716
929.521	0.180414
939.163	0.206916
948.806	0.260037
958.448	0.267857
968.09	0.213808
977.733	0.167696
987.375	0.144096
997.017	0.121669
1006.66	0.114322
1016.3	0.131679
1025.94	0.170268
1035.59	0.219336
1045.23	0.262236
1054.87	0.27335
1064.51	0.247684
1074.16	0.196367
1083.8	0.14926
1093.44	0.112588
1103.08	0.0823664
1112.72	0.0534217
1122.37	0.0332743
1132.01	0.0180136
1141.65	0.00988203
1151.3	0.00576043
1160.94	0.00357091
1170.58	0.00151258
1180.22	0.000471127
1189.86	1.69906e-05
1199.51	-0.00105551
1209.15	-0.00184109
1218.79	-0.0023047
1228.43	-0.00257039
1238.08	-0.00277047
1247.72	-0.0027317
1257.36	-0.00330465
1267	-0.00332685
1276.64	-0.00248367
1286.29	-0.00290667
1295.93	-0.00313535
1305.57	-0.00281797
1315.21	-0.00320658
1324.86	-0.00286884
1334.5	-0.00266816
1344.14	-0.00304973
1353.78	-0.00265931
1363.43	-0.00166468
1373.07	-0.00115714
1382.71	0.000173326
1392.35	0.000272757
1401.99	0.00183333
1411.64	0.00230471
1421.28	0.00374675
1430.92	0.00354077
1440.57	0.00394853
1450.21	0.00423507
1459.85	0.00365348
1469.49	0.00455485
1479.13	0.00390584
1488.78	0.00450036
1498.42	0.00378434
1508.06	0.00375432
1517.7	0.00275866
1527.35	0.0030307
1536.99	0.00180909
1546.63	0.00144067
1556.27	0.00189084
1565.91	0.000917519
1575.56	0.00121908
1585.2	0.00114647
1594.84	0.000944673
1604.48	0.00126998
1614.13	0.00168111
1623.77	0.00110732
1633.41	0.00163553
1643.05	0.00172566
1652.7	0.00103696
1662.34	0.000849462
1671.98	-0.000205745
1681.62	-0.000505773
1691.27	-0.00108213
1700.91	-0.000658685
1710.55	-0.00118424
1720.19	-0.00112076
1729.84	-0.00142751
1739.48	-0.0014314
1749.12	-0.00161146
1758.76	-0.00171492
1768.4	-0.00172652
1778.05	-0.00210878
1787.69	-0.0016889
1797.33	-0.0022433
1806.97	-0.00183542
1816.62	-0.00310142
1826.26	-0.00229747
1835.9	-0.00174877
1845.54	-0.00183724
1855.18	-0.00142015
1864.83	-0.00285901
1874.47	-0.000710559
1884.11	-0.00163458
1893.75	-0.00137123
1903.4	-0.00413667
1913.04	-0.00104844
1922.68	-0.000996946
1932.32	-0.00499577
1941.97	-0.00446902
1951.61	-0.00197827
1961.25	0.00491456
1970.89	0.000927676
1980.54	0.00264926
1990.18	0.00194372
1999.82	0.00335172
2009.46	8.87737e-06
2019.11	0.00087306
2028.75	0.00132911
2038.39	0.00305066
2048.03	4.47566e-05
2057.67	0.00254084
2067.32	6.37937e-05
2076.96	-0.00270583
2086.6	-0.000584928
2096.24	0.000788311
2105.89	0.000842792
2115.53	-0.00287863
2125.17	-0.00215559
2134.81	-0.00928697
2144.45	-0.00159762
2154.1	-0.0018591
2163.74	0.00922508
2173.38	0.00285301
2183.02	0.00199193
2192.67	0.0033083
2202.31	0.00567001
2211.95	0.000531851
2221.59	0.00516573
2231.24	0.00477127
2240.88	0.00489289
2250.52	0.00681442
2260.16	0.00467612
2269.8	0.00148864
2279.45	0.00527542
2289.09	0.00408864
2298.73	0.00249966
2308.38	0.00246223
2318.02	0.00345978
2327.66	0.000950326
2337.3	0.00169883
2346.94	0.00218218
2356.59	0.000945346
2366.23	0.000830062
2375.87	0.00165346
2385.51	0.00222029
2395.16	0.00163151
2404.8	0.00293699
2414.44	0.00278505
2424.08	0.00190462
2433.72	0.00288216
2443.37	0.00498489
2453.01	0.00539655
2462.65	0.0035612
2472.29	0.00339161
2481.94	0.00421816
2491.58	0.00322588
2501.22	0.00325423
2510.86	0.00380626
2520.51	0.00708638
2530.15	0.00528268
2539.79	0.00345816
2549.43	0.00545795
2559.07	0.00353489
2568.72	0.0043141
2578.36	0.0064446
2588	0.00520395
2597.64	0.00507648
2607.29	0.00300084
2616.93	0.00609033
2626.57	0.00565778
2636.21	0.00543452
2645.86	0.00515828
2655.5	0.00671824
2665.14	0.00483107
2674.78	0.00463505
2684.43	0.00373182
2694.07	0.00350893
2703.71	0.00293644
2713.35	0.00392272
2722.99	0.00541467
2732.64	0.00553953
2742.28	0.00474933
2751.92	0.00482901
2761.56	0.00463273
2771.21	0.00431467
2780.85	0.00502689
2790.49	0.00562568
2800.13	0.0058558
2809.78	0.00495895
2819.42	0.00625256
2829.06	0.00506336
2838.7	0.00553509
2848.34	0.00700469
2857.99	0.00651269
2867.63	0.00804395
2877.27	0.00644625
2886.91	0.00938033
2896.56	0.0101556
2906.2	0.0102024
2915.84	0.00852748
2925.48	0.00989883
2935.13	0.00829367
2944.77	0.0075466
2954.41	0.0107899
2964.05	0.0089544
2973.7	0.00678919
2983.34	0.00711876
2992.98	0.00876328
3002.62	0.00842006
3012.26	0.0090033
3021.91	0.00663802
3031.55	0.0105717
3041.19	0.00934675
3050.83	0.00829318
3060.48	0.00953665
3070.12	0.00928438
3079.76	0.0108345
3089.4	0.0113264
3099.05	0.00985545
3108.69	0.00873855
3118.33	0.00978465
3127.97	0.0104505
3137.61	0.0097297
3147.26	0.00815328
3156.9	0.00983179
3166.54	0.0102269
3176.18	0.0111998
3185.83	0.0105344
3195.47	0.0116359
3205.11	0.0108525
3214.75	0.0122693
3224.4	0.0111043
3234.04	0.0135458
3243.68	0.0102349
3253.32	0.0115613
3262.97	0.0127012
3272.61	0.00977382
3282.25	0.0087443
3291.89	0.0123357
3301.53	0.00982835
3311.18	0.00823776
3320.82	0.0135882
3330.46	0.0113292
3340.1	0.0154915
3349.75	0.0147834
3359.39	0.00799317
3369.03	0.0128848
3378.67	0.0125252
3388.32	0.014026
3397.96	0.00749572
3407.6	0.0111419
3417.24	0.0094613
3426.89	0.0115524
3436.53	0.00961769
3446.17	0.0112022
3455.81	0.00627391
3465.45	0.00699442
3475.1	0.00626276
3484.74	0.00784971
3494.38	0.00875618
3504.02	0.00947669
3513.67	0.00812704
3523.31	0.00525889
3532.95	0.0090279
3542.59	0.00997955
3552.24	0.00396056
3561.88	0.00627883
3571.52	0.00790497
3581.16	0.0013518
3590.8	-8.36602e-06
3600.45	0.00405742
3610.09	-0.00366759
3619.73	0.000532483
3629.37	0.00194103
3639.02	-0.000162462
3648.66	-0.00133581
3658.3	-0.0026021
3667.94	-0.000824249
3677.59	-0.00566566
3687.23	0.00112295
3696.87	-0.00444108
3706.51	-0.001521
3716.16	-0.00500436
3725.8	-0.00405132
3735.44	-0.0032612
3745.08	-0.0038022
3754.72	0.000607284
3764.37	-0.0011768
3774.01	-0.00195363
3783.65	-0.00793255
3793.29	2.45174e-05
3802.94	-0.00423281
3812.58	-0.00356582
3822.22	-0.000812355
3831.86	-0.00330238
3841.51	-0.00239432
3851.15	-0.000140247
3860.79	-0.00372902
3870.43	8.05938e-05
3880.07	-0.00198026
3889.72	-0.00432213
3899.36	-0.00289821
3909	-0.00755875
3918.64	-0.00475075
3928.29	-0.00516762
3937.93	-0.0050623
3947.57	-0.00447022
3957.21	-0.00617555
3966.86	-0.00664284
3976.5	-0.00685749
3986.14	-0.0116179
3995.78	-0.0043567
