Measurement: Infrared, Infrared Data Processed
Mineral: Hedenbergite
Rruff sample: R070136
Ideal chemistry: CaFe^2+^Si_2_O_6_
Locality: Vesper Peak, Snohomish County, Washington, USA
Source: Mark Mauthner
Description: Brownish green prismatic crystals with transparent sections
x	intensity
374.123	0.119045
383.765	0.115783
393.407	0.118122
403.05	0.1098
412.692	0.0941068
422.334	0.120483
431.976	0.157663
441.619	0.198812
451.261	0.212455
460.904	0.208185
470.546	0.176186
480.188	0.157464
489.83	0.170239
499.473	0.158086
509.115	0.152022
518.758	0.129992
528.4	0.108526
538.042	0.0854078
547.684	0.063714
557.327	0.0439283
566.969	0.0325434
576.611	0.0292021
586.254	0.0312916
595.896	0.0369961
605.538	0.0490364
615.181	0.0713996
624.823	0.0843204
634.466	0.0577
644.108	0.0337182
653.75	0.0333748
663.393	0.0532059
673.035	0.0454152
682.677	0.0282382
692.319	0.0262411
701.962	0.0267286
711.604	0.0283572
721.246	0.0312266
730.889	0.0355534
740.531	0.0404812
750.173	0.0463276
759.816	0.0539521
769.458	0.0628692
779.101	0.0736948
788.743	0.0860144
798.385	0.101642
808.028	0.119624
817.67	0.141272
827.312	0.167919
836.955	0.198603
846.597	0.226824
856.239	0.230878
865.881	0.219095
875.524	0.203719
885.166	0.193429
894.808	0.185071
904.451	0.179942
914.093	0.167118
923.736	0.134411
933.378	0.123102
943.02	0.153078
952.663	0.182636
962.305	0.169968
971.947	0.131065
981.59	0.108314
991.232	0.0916375
1000.87	0.0762418
1010.52	0.0784126
1020.16	0.101833
1029.8	0.13454
1039.44	0.169015
1049.09	0.188429
1058.73	0.188046
1068.37	0.16427
1078.01	0.131135
1087.65	0.101116
1097.3	0.0760986
1106.94	0.0541677
1116.58	0.0351959
1126.22	0.0215563
1135.87	0.0114659
1145.51	0.00752571
1155.15	0.00529807
1164.79	0.0038596
1174.44	0.00320843
1184.08	0.00235517
1193.72	0.00186581
1203.36	0.00170517
1213.01	0.0012709
1222.65	0.00104648
1232.29	0.00119112
1241.93	0.000846382
1251.58	0.000944539
1261.22	0.000935754
1270.86	0.000995018
1280.5	0.0010919
1290.14	0.00151748
1299.79	0.00146043
1309.43	0.00163106
1319.07	0.001543
1328.71	0.00170569
1338.36	0.00182463
1348	0.0020804
1357.64	0.0022916
1367.28	0.00246091
1376.92	0.0027799
1386.57	0.0029623
1396.21	0.0034635
1405.85	0.00380101
1415.49	0.00415979
1425.14	0.00448534
1434.78	0.00496523
1444.42	0.00499753
1454.06	0.0050204
1463.71	0.00513754
1473.35	0.00531589
1482.99	0.00547756
1492.63	0.00552746
1502.28	0.00570599
1511.92	0.00585157
1521.56	0.00611201
1531.2	0.00619105
1540.85	0.00668032
1550.49	0.00660627
1560.13	0.00700568
1569.77	0.00683963
1579.41	0.00690245
1589.06	0.00670934
1598.7	0.00680167
1608.34	0.00696055
1617.98	0.00712201
1627.63	0.00725959
1637.27	0.00736472
1646.91	0.00720634
1656.55	0.00691016
1666.19	0.00651746
1675.84	0.00595909
1685.48	0.00607749
1695.12	0.00628681
1704.77	0.00603699
1714.41	0.00580843
1724.05	0.0058475
1733.69	0.00568422
1743.33	0.0049424
1752.98	0.00466167
1762.62	0.00493529
1772.26	0.00526912
1781.9	0.00519166
1791.55	0.00523217
1801.19	0.00531361
1810.83	0.00538737
1820.47	0.00517576
1830.12	0.00548406
1839.76	0.00526177
1849.4	0.00531649
1859.04	0.00560643
1868.68	0.00549507
1878.33	0.00562557
1887.97	0.00540952
1897.61	0.00515848
1907.25	0.00483339
1916.9	0.00472691
1926.54	0.00411607
1936.18	0.00506866
1945.82	0.00490566
1955.46	0.00499569
1965.11	0.00451184
1974.75	0.00499271
1984.39	0.00724615
1994.04	0.00707423
2003.68	0.0067553
2013.32	0.00781823
2022.96	0.0064697
2032.6	0.00723072
2042.25	0.00802658
2051.89	0.00743169
2061.53	0.00669262
2071.17	0.00747277
2080.82	0.00809401
2090.46	0.00673812
2100.1	0.00682303
2109.74	0.0067909
2119.39	0.00671549
2129.03	0.00446654
2138.67	0.00530808
2148.31	0.00627766
2157.95	0.00407687
2167.6	0.00871882
2177.24	0.0102332
2186.88	0.00986752
2196.52	0.01023
2206.17	0.0102766
2215.81	0.0106575
2225.45	0.0114563
2235.09	0.0114939
2244.74	0.0122509
2254.38	0.0115852
2264.02	0.012147
2273.66	0.0132542
2283.3	0.0134135
2292.95	0.012547
2302.59	0.0129587
2312.23	0.0123778
2321.87	0.0138529
2331.52	0.0114865
2341.16	0.0112316
2350.8	0.0112662
2360.44	0.0107758
2370.09	0.0106961
2379.73	0.0105361
2389.37	0.0107948
2399.01	0.0109976
2408.66	0.0109135
2418.3	0.0111546
2427.94	0.011597
2437.58	0.0115929
2447.22	0.0121523
2456.87	0.0119846
2466.51	0.011863
2476.15	0.0114131
2485.79	0.0118868
2495.44	0.0114524
2505.08	0.0120637
2514.72	0.0114447
2524.36	0.0122903
2534.01	0.0123605
2543.65	0.0126877
2553.29	0.0124331
2562.93	0.0125576
2572.57	0.0129488
2582.22	0.0134033
2591.86	0.0135762
2601.5	0.0140374
2611.14	0.0138889
2620.79	0.0145342
2630.43	0.0146125
2640.07	0.014403
2649.71	0.014071
2659.36	0.014155
2669	0.0134132
2678.64	0.0131489
2688.28	0.0131576
2697.93	0.0130107
2707.57	0.013214
2717.21	0.0133621
2726.85	0.0131711
2736.49	0.0133537
2746.14	0.0136579
2755.78	0.0136526
2765.42	0.0132747
2775.06	0.0137426
2784.71	0.0139543
2794.35	0.0136582
2803.99	0.013771
2813.63	0.0141555
2823.28	0.014125
2832.92	0.0145855
2842.56	0.0147236
2852.2	0.0141416
2861.84	0.0147362
2871.49	0.0143804
2881.13	0.0145729
2890.77	0.0148834
2900.41	0.0152042
2910.06	0.0155989
2919.7	0.0153412
2929.34	0.0150488
2938.98	0.0143606
2948.62	0.0151357
2958.27	0.0149354
2967.91	0.0142471
2977.55	0.0145616
2987.2	0.0139513
2996.84	0.0141703
3006.48	0.0140082
3016.12	0.0148396
3025.76	0.0139033
3035.41	0.0142597
3045.05	0.0143318
3054.69	0.0143911
3064.33	0.0146863
3073.98	0.0153755
3083.62	0.0146637
3093.26	0.0149631
3102.9	0.0152593
3112.55	0.0155169
3122.19	0.0152612
3131.83	0.0155889
3141.47	0.0155654
3151.11	0.0157678
3160.76	0.0156939
3170.4	0.0162719
3180.04	0.0165439
3189.68	0.0160804
3199.33	0.0170126
3208.97	0.0170931
3218.61	0.0170034
3228.25	0.0170422
3237.9	0.0175313
3247.54	0.0167596
3257.18	0.0173841
3266.82	0.01691
3276.47	0.0169303
3286.11	0.0173533
3295.75	0.0175739
3305.39	0.0166751
3315.03	0.0183052
3324.68	0.0174651
3334.32	0.017334
3343.96	0.0174841
3353.6	0.0177868
3363.25	0.0179528
3372.89	0.0176448
3382.53	0.0172089
3392.17	0.017779
3401.82	0.0173865
3411.46	0.0173175
3421.1	0.0174807
3430.74	0.0178601
3440.39	0.0175208
3450.03	0.0169709
3459.67	0.0167107
3469.31	0.0163153
3478.95	0.0175187
3488.6	0.0168995
3498.24	0.0168972
3507.88	0.0162972
3517.52	0.0172721
3527.17	0.016806
3536.81	0.0166137
3546.45	0.0174012
3556.09	0.0171712
3565.74	0.0179836
3575.38	0.0167678
3585.02	0.0157506
3594.66	0.0167362
3604.3	0.0161353
3613.95	0.016282
3623.59	0.015362
3633.23	0.0157791
3642.87	0.0150807
3652.52	0.0150298
3662.16	0.0139851
3671.8	0.0153836
3681.44	0.0142354
3691.09	0.0139205
3700.73	0.014288
3710.37	0.0142696
3720.01	0.014106
3729.66	0.0150922
3739.3	0.0141379
3748.94	0.0156335
3758.58	0.0151383
3768.22	0.0160785
3777.87	0.0155335
3787.51	0.0152344
3797.15	0.0152983
3806.79	0.0150469
3816.44	0.014798
3826.08	0.0148332
3835.72	0.0148399
3845.36	0.0164968
3855.01	0.0159991
3864.65	0.0156025
3874.29	0.0142884
3883.93	0.0142559
3893.57	0.0146069
3903.22	0.0148328
3912.86	0.0156872
3922.5	0.0138892
3932.14	0.0143385
3941.79	0.0149864
3951.43	0.0143427
3961.07	0.0143149
3970.71	0.0146649
3980.36	0.0139527
3990	0.0151778
3999.64	0.0155468
