Measurement: Infrared, Infrared Data Processed
Mineral: Heklaite
Rruff sample: R090034
Ideal chemistry: KNaSiF_6_
Locality: Bone Valley district, Bartow, Polk County, Florida
Source: Thomas P. Moore
Description: Synthetic colorless hexagonal dipyramid
x	intensity
399.193	0.00611446
408.835	0.000781785
418.477	0.00632508
428.12	0.00793397
437.762	0.011463
447.404	0.0187682
457.047	0.0357291
466.689	0.0930086
476.331	0.28456
485.974	0.201466
495.616	0.0893769
505.258	0.0277435
514.901	0.0131043
524.543	0.010527
534.185	0.0103617
543.828	0.011116
553.47	0.0119632
563.112	0.0121583
572.755	0.013295
582.397	0.0155842
592.039	0.0174087
601.682	0.0210918
611.324	0.025179
620.966	0.0319682
630.609	0.0415813
640.251	0.0586825
649.893	0.0932927
659.536	0.173578
669.178	0.158789
678.82	0.233841
688.463	0.346468
698.105	0.451994
707.747	0.521804
717.39	0.505519
727.032	0.403299
736.674	0.298261
746.317	0.233596
755.959	0.177438
765.601	0.134659
775.244	0.100326
784.886	0.0720353
794.528	0.0503237
804.171	0.0428077
813.813	0.0207553
823.455	0.00873024
833.098	0.00377318
842.74	0.00199104
852.382	0.000988095
862.025	5.9243e-05
871.667	-0.000420459
881.309	-0.000612067
890.952	-0.000974789
900.594	-0.00124763
910.236	-0.00154883
919.879	-0.0014077
929.521	-0.00139091
939.163	-0.00134526
948.806	-0.00113751
958.448	-0.000878146
968.09	-0.00083096
977.733	-0.000935156
987.375	-0.00106031
997.017	-0.0011311
1006.66	-0.00127995
1016.3	-0.00143518
1025.94	-0.0017402
1035.59	-0.00191164
1045.23	-0.00168273
1054.87	-0.00155469
1064.51	-0.0015818
1074.16	-0.00153533
1083.8	-0.00145532
1093.44	-0.00155256
1103.08	-0.00148002
1112.72	-0.00160438
1122.37	-0.00128666
1132.01	-0.00103619
1141.65	-0.000370798
1151.3	-0.000135175
1160.94	-0.000703984
1170.58	-0.00106333
1180.22	-0.00104286
1189.86	-0.0001224
1199.51	0.000829133
1209.15	0.00157575
1218.79	0.00205701
1228.43	0.00191705
1238.08	0.00148028
1247.72	0.000605626
1257.36	-0.000402593
1267	-0.00062017
1276.64	-0.000924466
1286.29	-0.00128496
1295.93	-0.00164239
1305.57	-0.00230451
1315.21	-0.00249012
1324.86	-0.00308672
1334.5	-0.00337596
1344.14	-0.00366906
1353.78	-0.00376776
1363.43	-0.0035976
1373.07	-0.00344114
1382.71	-0.0031733
1392.35	-0.00257737
1401.99	-0.00245644
1411.64	-0.00224232
1421.28	-0.00178783
1430.92	-0.000982269
1440.57	-0.000882271
1450.21	-0.0013323
1459.85	-0.00174311
1469.49	-0.00222098
1479.13	-0.00252965
1488.78	-0.00285355
1498.42	-0.00350241
1508.06	-0.00334968
1517.7	-0.00383137
1527.35	-0.00405306
1536.99	-0.00406372
1546.63	-0.00440865
1556.27	-0.00395811
1565.91	-0.00450971
1575.56	-0.00401515
1585.2	-0.00457912
1594.84	-0.00447311
1604.48	-0.00424144
1614.13	-0.00414822
1623.77	-0.00384961
1633.41	-0.00371624
1643.05	-0.00346502
1652.7	-0.00252369
1662.34	-0.00382803
1671.98	-0.00372204
1681.62	-0.00388103
1691.27	-0.0042825
1700.91	-0.00366274
1710.55	-0.00411064
1720.19	-0.00232521
1729.84	-0.000898184
1739.48	-0.00256304
1749.12	-0.00497669
1758.76	-0.00541553
1768.4	-0.00553057
1778.05	-0.00577401
1787.69	-0.00551013
1797.33	-0.00550869
1806.97	-0.00554918
1816.62	-0.00610332
1826.26	-0.00579194
1835.9	-0.00583001
1845.54	-0.00566283
1855.18	-0.00620124
1864.83	-0.00617166
1874.47	-0.00634619
1884.11	-0.00613685
1893.75	-0.00605353
1903.4	-0.00604209
1913.04	-0.0064762
1922.68	-0.00635965
1932.32	-0.00684643
1941.97	-0.00663395
1951.61	-0.00738497
1961.25	-0.00718319
1970.89	-0.00843995
1980.54	-0.00511922
1990.18	-0.00655798
1999.82	-0.00648091
2009.46	-0.00738783
2019.11	-0.00714137
2028.75	-0.00799513
2038.39	-0.00734254
2048.03	-0.00669656
2057.67	-0.00689237
2067.32	-0.00718299
2076.96	-0.0067811
2086.6	-0.00715541
2096.24	-0.00762196
2105.89	-0.0077287
2115.53	-0.00808536
2125.17	-0.00873121
2134.81	-0.0107075
2144.45	-0.00990978
2154.1	-0.0139504
2163.74	-0.00850354
2173.38	-0.00901054
2183.02	-0.00767887
2192.67	-0.00785194
2202.31	-0.00806044
2211.95	-0.00844015
2221.59	-0.00778169
2231.24	-0.00739552
2240.88	-0.0067983
2250.52	-0.00815067
2260.16	-0.00774962
2269.8	-0.00698233
2279.45	-0.00685524
2289.09	-0.0064291
2298.73	-0.00707925
2308.38	-0.00645872
2318.02	-0.00577475
2327.66	-0.00627019
2337.3	-0.00643623
2346.94	-0.00724811
2356.59	-0.00631537
2366.23	-0.00740038
2375.87	-0.0082778
2385.51	-0.00883011
2395.16	-0.00881796
2404.8	-0.00895829
2414.44	-0.00885151
2424.08	-0.00854808
2433.72	-0.00845649
2443.37	-0.00911473
2453.01	-0.00891965
2462.65	-0.00917858
2472.29	-0.00905207
2481.94	-0.00935417
2491.58	-0.00925996
2501.22	-0.00952708
2510.86	-0.00968973
2520.51	-0.00934859
2530.15	-0.00940887
2539.79	-0.00948553
2549.43	-0.00936333
2559.07	-0.00920458
2568.72	-0.00934359
2578.36	-0.00921828
2588	-0.00895879
2597.64	-0.00930208
2607.29	-0.00902649
2616.93	-0.00879051
2626.57	-0.00869344
2636.21	-0.00906182
2645.86	-0.00923533
2655.5	-0.00935697
2665.14	-0.00957146
2674.78	-0.0100805
2684.43	-0.00991203
2694.07	-0.00953794
2703.71	-0.00994371
2713.35	-0.0101929
2722.99	-0.0102205
2732.64	-0.0102985
2742.28	-0.0100065
2751.92	-0.0100872
2761.56	-0.0101074
2771.21	-0.0100589
2780.85	-0.0103002
2790.49	-0.0103743
2800.13	-0.0103395
2809.78	-0.0104828
2819.42	-0.0102021
2829.06	-0.010354
2838.7	-0.0100373
2848.34	-0.0105255
2857.99	-0.0101724
2867.63	-0.0108426
2877.27	-0.010597
2886.91	-0.0103675
2896.56	-0.0104777
2906.2	-0.00991192
2915.84	-0.0104237
2925.48	-0.0101113
2935.13	-0.0103008
2944.77	-0.0105112
2954.41	-0.0107202
2964.05	-0.0110906
2973.7	-0.0109913
2983.34	-0.0114967
2992.98	-0.0119655
3002.62	-0.012009
3012.26	-0.0121852
3021.91	-0.0122679
3031.55	-0.012686
3041.19	-0.0123824
3050.83	-0.0125306
3060.48	-0.0127351
3070.12	-0.0122903
3079.76	-0.0126549
3089.4	-0.012595
3099.05	-0.011967
3108.69	-0.0131448
3118.33	-0.0122396
3127.97	-0.0126865
3137.61	-0.0124361
3147.26	-0.0124157
3156.9	-0.0131662
3166.54	-0.0121189
3176.18	-0.0128346
3185.83	-0.0127167
3195.47	-0.0129702
3205.11	-0.0120862
3214.75	-0.0131082
3224.4	-0.0130797
3234.04	-0.0129112
3243.68	-0.0127299
3253.32	-0.0135482
3262.97	-0.0128547
3272.61	-0.0126568
3282.25	-0.0133405
3291.89	-0.0127567
3301.53	-0.0131999
3311.18	-0.0134109
3320.82	-0.0131107
3330.46	-0.0130774
3340.1	-0.012527
3349.75	-0.0134113
3359.39	-0.013355
3369.03	-0.0137229
3378.67	-0.0142059
3388.32	-0.0138399
3397.96	-0.0148347
3407.6	-0.0145452
3417.24	-0.0146252
3426.89	-0.0150005
3436.53	-0.0148978
3446.17	-0.0147855
3455.81	-0.014618
3465.45	-0.0152558
3475.1	-0.0154168
3484.74	-0.0157847
3494.38	-0.0149079
3504.02	-0.0152215
3513.67	-0.0147146
3523.31	-0.0153164
3532.95	-0.0152292
3542.59	-0.0160037
3552.24	-0.0147471
3561.88	-0.0166998
3571.52	-0.0164263
3581.16	-0.0150608
3590.8	-0.0157832
3600.45	-0.016249
3610.09	-0.0162016
3619.73	-0.0158989
3629.37	-0.0157215
3639.02	-0.0170813
3648.66	-0.015409
3658.3	-0.0157216
3667.94	-0.0165932
3677.59	-0.0163176
3687.23	-0.0162692
3696.87	-0.016309
3706.51	-0.0166791
3716.16	-0.0163187
3725.8	-0.0165294
3735.44	-0.0146114
3745.08	-0.0151284
3754.72	-0.0163926
3764.37	-0.0161218
3774.01	-0.0178634
3783.65	-0.0172037
3793.29	-0.0177895
3802.94	-0.0163432
3812.58	-0.0176154
3822.22	-0.0168192
3831.86	-0.0177515
3841.51	-0.0167504
3851.15	-0.0169616
3860.79	-0.0174518
3870.43	-0.0175124
3880.07	-0.0179057
3889.72	-0.0180063
3899.36	-0.0180762
3909	-0.0180205
3918.64	-0.018502
3928.29	-0.0184898
3937.93	-0.0186959
3947.57	-0.0197046
3957.21	-0.0188559
3966.86	-0.0180569
3976.5	-0.019821
3986.14	-0.0194934
3995.78	-0.0188432
