Measurement: Infrared, Infrared Data Processed
Mineral: Hematite
Rruff sample: R040024
Ideal chemistry: Fe^3+^_2_O_3_
Locality: near Covered Wells, Papago Indian Reservation, Arizona, USA
Source: University of Arizona Mineral Museum
Description: Reddish-black foliatated mass
Measured chemistry: (Fe_1.99_Al_0.01_)_Î£=2_O_3_
x	intensity
399.193	0
408.835	0.249179
418.477	0.290853
428.12	0.324265
437.762	0.335051
447.404	0.325982
457.047	0.314858
466.689	0.299668
476.331	0.274365
485.974	0.248305
495.616	0.248346
505.258	0.321049
514.901	0.356125
524.543	0.342741
534.185	0.319765
543.828	0.28923
553.47	0.260653
563.112	0.23261
572.755	0.209201
582.397	0.188777
592.039	0.17015
601.682	0.150624
611.324	0.131647
620.966	0.114059
630.609	0.0969637
640.251	0.0796404
649.893	0.0618098
659.536	0.050408
669.178	0.0451182
678.82	0.0425689
688.463	0.0406278
698.105	0.0392939
707.747	0.0368886
717.39	0.035233
727.032	0.03319
736.674	0.0314783
746.317	0.0298456
755.959	0.0292567
765.601	0.0295874
775.244	0.0314325
784.886	0.0330533
794.528	0.0343953
804.171	0.0359775
813.813	0.0383706
823.455	0.0414304
833.098	0.0437197
842.74	0.0469966
852.382	0.0500144
862.025	0.0534111
871.667	0.0578177
881.309	0.062347
890.952	0.0666342
900.594	0.0724168
910.236	0.0770099
919.879	0.0805223
929.521	0.0832176
939.163	0.0862329
948.806	0.0896896
958.448	0.0936929
968.09	0.0980528
977.733	0.103134
987.375	0.108987
997.017	0.115403
1006.66	0.122037
1016.3	0.128034
1025.94	0.133503
1035.59	0.137829
1045.23	0.140394
1054.87	0.141389
1064.51	0.142138
1074.16	0.143002
1083.8	0.144352
1093.44	0.146774
1103.08	0.149315
1112.72	0.152144
1122.37	0.154544
1132.01	0.157237
1141.65	0.160286
1151.3	0.162944
1160.94	0.165167
1170.58	0.167378
1180.22	0.169908
1189.86	0.171675
1199.51	0.174252
1209.15	0.176921
1218.79	0.179306
1228.43	0.182004
1238.08	0.184834
1247.72	0.188323
1257.36	0.190511
1267	0.192962
1276.64	0.19559
1286.29	0.198177
1295.93	0.201376
1305.57	0.203996
1315.21	0.20699
1324.86	0.209387
1334.5	0.212
1344.14	0.215046
1353.78	0.217878
1363.43	0.219544
1373.07	0.222809
1382.71	0.226217
1392.35	0.229694
1401.99	0.232019
1411.64	0.234529
1421.28	0.237542
1430.92	0.238742
1440.57	0.23967
1450.21	0.240869
1459.85	0.241075
1469.49	0.241034
1479.13	0.241155
1488.78	0.243119
1498.42	0.244667
1508.06	0.24602
1517.7	0.24783
1527.35	0.249905
1536.99	0.252058
1546.63	0.253448
1556.27	0.254713
1565.91	0.256266
1575.56	0.257581
1585.2	0.258069
1594.84	0.258923
1604.48	0.260084
1614.13	0.260333
1623.77	0.260906
1633.41	0.261488
1643.05	0.262653
1652.7	0.263333
1662.34	0.264071
1671.98	0.264473
1681.62	0.265302
1691.27	0.266562
1700.91	0.267824
1710.55	0.269292
1720.19	0.270336
1729.84	0.271858
1739.48	0.273167
1749.12	0.272389
1758.76	0.273443
1768.4	0.274617
1778.05	0.275393
1787.69	0.277328
1797.33	0.277607
1806.97	0.278879
1816.62	0.278935
1826.26	0.280663
1835.9	0.281255
1845.54	0.282174
1855.18	0.283936
1864.83	0.284715
1874.47	0.28565
1884.11	0.28534
1893.75	0.285473
1903.4	0.28701
1913.04	0.289203
1922.68	0.289565
1932.32	0.289064
1941.97	0.289159
1951.61	0.289808
1961.25	0.288098
1970.89	0.284363
1980.54	0.290242
1990.18	0.290777
1999.82	0.289684
2009.46	0.290469
2019.11	0.290475
2028.75	0.290434
2038.39	0.29485
2048.03	0.294302
2057.67	0.299669
2067.32	0.300786
2076.96	0.301723
2086.6	0.304148
2096.24	0.302552
2105.89	0.305854
2115.53	0.305423
2125.17	0.305373
2134.81	0.30321
2144.45	0.303194
2154.1	0.295831
2163.74	0.304078
2173.38	0.305288
2183.02	0.304302
2192.67	0.306209
2202.31	0.305812
2211.95	0.309937
2221.59	0.316038
2231.24	0.311934
2240.88	0.314316
2250.52	0.315257
2260.16	0.317578
2269.8	0.318665
2279.45	0.322227
2289.09	0.323344
2298.73	0.324691
2308.38	0.325852
2318.02	0.327677
2327.66	0.327183
2337.3	0.327706
2346.94	0.329144
2356.59	0.329459
2366.23	0.32956
2375.87	0.330644
2385.51	0.330551
2395.16	0.330747
2404.8	0.332241
2414.44	0.331704
2424.08	0.332101
2433.72	0.33327
2443.37	0.334586
2453.01	0.336082
2462.65	0.337083
2472.29	0.33736
2481.94	0.337776
2491.58	0.337322
2501.22	0.337432
2510.86	0.338855
2520.51	0.340316
2530.15	0.339887
2539.79	0.340399
2549.43	0.34182
2559.07	0.343388
2568.72	0.344162
2578.36	0.344811
2588	0.345829
2597.64	0.345881
2607.29	0.348192
2616.93	0.349064
2626.57	0.349763
2636.21	0.350585
2645.86	0.352989
2655.5	0.353994
2665.14	0.353861
2674.78	0.353149
2684.43	0.353738
2694.07	0.355386
2703.71	0.35662
2713.35	0.356637
2722.99	0.357106
2732.64	0.358005
2742.28	0.358819
2751.92	0.358937
2761.56	0.360014
2771.21	0.361036
2780.85	0.361174
2790.49	0.361024
2800.13	0.362669
2809.78	0.363401
2819.42	0.36527
2829.06	0.365045
2838.7	0.367165
2848.34	0.368059
2857.99	0.367552
2867.63	0.367266
2877.27	0.368937
2886.91	0.36915
2896.56	0.370085
2906.2	0.370297
2915.84	0.371523
2925.48	0.371684
2935.13	0.369794
2944.77	0.369475
2954.41	0.371118
2964.05	0.371318
2973.7	0.370806
2983.34	0.37195
2992.98	0.373045
3002.62	0.374147
3012.26	0.374887
3021.91	0.373265
3031.55	0.375497
3041.19	0.376638
3050.83	0.376942
3060.48	0.377925
3070.12	0.378981
3079.76	0.379733
3089.4	0.380411
3099.05	0.379306
3108.69	0.381835
3118.33	0.382383
3127.97	0.382348
3137.61	0.383718
3147.26	0.383302
3156.9	0.384886
3166.54	0.383932
3176.18	0.385762
3185.83	0.384985
3195.47	0.386759
3205.11	0.385871
3214.75	0.38762
3224.4	0.388728
3234.04	0.389455
3243.68	0.390075
3253.32	0.388934
3262.97	0.391
3272.61	0.392187
3282.25	0.391835
3291.89	0.391403
3301.53	0.395226
3311.18	0.395785
3320.82	0.395684
3330.46	0.395157
3340.1	0.395638
3349.75	0.396916
3359.39	0.398904
3369.03	0.397962
3378.67	0.39828
3388.32	0.399255
3397.96	0.397289
3407.6	0.397794
3417.24	0.398165
3426.89	0.401261
3436.53	0.40148
3446.17	0.399273
3455.81	0.400577
3465.45	0.400358
3475.1	0.401409
3484.74	0.402884
3494.38	0.401203
3504.02	0.401659
3513.67	0.40179
3523.31	0.403326
3532.95	0.402141
3542.59	0.401738
3552.24	0.404296
3561.88	0.402828
3571.52	0.404817
3581.16	0.404261
3590.8	0.404026
3600.45	0.407237
3610.09	0.406736
3619.73	0.406653
3629.37	0.40629
3639.02	0.407032
3648.66	0.411394
3658.3	0.407331
3667.94	0.410826
3677.59	0.412592
3687.23	0.41226
3696.87	0.412679
3706.51	0.4131
3716.16	0.41542
3725.8	0.41284
3735.44	0.414335
3745.08	0.41844
3754.72	0.418418
3764.37	0.418531
3774.01	0.421503
3783.65	0.417623
3793.29	0.422676
3802.94	0.421984
3812.58	0.42298
3822.22	0.424624
3831.86	0.422995
3841.51	0.426567
3851.15	0.422646
3860.79	0.427376
3870.43	0.426112
3880.07	0.427382
3889.72	0.426873
3899.36	0.429855
3909	0.426872
3918.64	0.431195
3928.29	0.430307
3937.93	0.432492
3947.57	0.433257
3957.21	0.430921
3966.86	0.434395
3976.5	0.433309
3986.14	0.438954
3995.78	0.438799
