Measurement: Infrared, Infrared Data Processed
Mineral: Hematite
Rruff sample: R070240
Ideal chemistry: Fe^3+^_2_O_3_
Locality: Moshgai, Gobi Desert, Mongolia
Source: Michael Scott
Description: Black fine-grained replacement of massive but fractured magnetite
Measured chemistry: (Fe^3+^_1.97_Al_0.02_Mn^3+^_0.01_)_Î£=2_O_3_
x	intensity
374.123	0.0519958
383.765	0.0489663
393.407	0.049278
403.05	0.0463611
412.692	0.0517044
422.334	0.0516821
431.976	0.056762
441.619	0.0583305
451.261	0.0609029
460.904	0.0629753
470.546	0.0628015
480.188	0.0605419
489.83	0.0558924
499.473	0.0537293
509.115	0.0591594
518.758	0.0641406
528.4	0.0668825
538.042	0.0690307
547.684	0.0692414
557.327	0.0679459
566.969	0.0657497
576.611	0.0624805
586.254	0.0588808
595.896	0.0553052
605.538	0.0513152
615.181	0.047027
624.823	0.043447
634.466	0.0396445
644.108	0.0354397
653.75	0.0309612
663.393	0.02851
673.035	0.0273315
682.677	0.0270173
692.319	0.0268242
701.962	0.0266784
711.604	0.0266196
721.246	0.026171
730.889	0.0260776
740.531	0.0257835
750.173	0.0258391
759.816	0.0257966
769.458	0.026072
779.101	0.026579
788.743	0.0267562
798.385	0.027116
808.028	0.0269454
817.67	0.0269817
827.312	0.0272091
836.955	0.027604
846.597	0.0278705
856.239	0.0286168
865.881	0.0292255
875.524	0.0295669
885.166	0.0294598
894.808	0.0301028
904.451	0.0308836
914.093	0.0312756
923.736	0.0315035
933.378	0.0320279
943.02	0.0328481
952.663	0.0332583
962.305	0.0340679
971.947	0.0348269
981.59	0.036225
991.232	0.0378333
1000.87	0.0389436
1010.52	0.0402727
1020.16	0.0414004
1029.8	0.0422557
1039.44	0.0423558
1049.09	0.0419374
1058.73	0.04173
1068.37	0.0412958
1078.01	0.041172
1087.65	0.0409336
1097.3	0.0406198
1106.94	0.0402508
1116.58	0.0398036
1126.22	0.0394597
1135.87	0.039735
1145.51	0.0399333
1155.15	0.0398891
1164.79	0.0400048
1174.44	0.0399193
1184.08	0.0402722
1193.72	0.0406533
1203.36	0.0407785
1213.01	0.0407751
1222.65	0.0412178
1232.29	0.0412475
1241.93	0.0417594
1251.58	0.0421143
1261.22	0.0426174
1270.86	0.0432888
1280.5	0.0439224
1290.14	0.0445408
1299.79	0.045081
1309.43	0.0456356
1319.07	0.0461954
1328.71	0.0469741
1338.36	0.0472933
1348	0.0478369
1357.64	0.0484505
1367.28	0.048934
1376.92	0.0497838
1386.57	0.0502504
1396.21	0.0509481
1405.85	0.0513149
1415.49	0.0518719
1425.14	0.0521443
1434.78	0.0524505
1444.42	0.0526443
1454.06	0.052859
1463.71	0.0528823
1473.35	0.0531939
1482.99	0.0534268
1492.63	0.0537435
1502.28	0.0539904
1511.92	0.0541308
1521.56	0.0548947
1531.2	0.0548034
1540.85	0.0553218
1550.49	0.0553814
1560.13	0.0559624
1569.77	0.0559775
1579.41	0.0563503
1589.06	0.0562786
1598.7	0.0566586
1608.34	0.057334
1617.98	0.0575782
1627.63	0.0579116
1637.27	0.0581848
1646.91	0.0582604
1656.55	0.0583676
1666.19	0.058413
1675.84	0.0589041
1685.48	0.0589712
1695.12	0.0593775
1704.77	0.0593941
1714.41	0.0595732
1724.05	0.0595552
1733.69	0.0596531
1743.33	0.0594597
1752.98	0.0596818
1762.62	0.0598494
1772.26	0.0604588
1781.9	0.06077
1791.55	0.0610029
1801.19	0.0614545
1810.83	0.0616164
1820.47	0.061579
1830.12	0.0617429
1839.76	0.0618825
1849.4	0.0622309
1859.04	0.0623163
1868.68	0.0625166
1878.33	0.0626923
1887.97	0.0626633
1897.61	0.0629631
1907.25	0.0633736
1916.9	0.0638632
1926.54	0.0638115
1936.18	0.0641346
1945.82	0.0632892
1955.46	0.0640109
1965.11	0.0649068
1974.75	0.0655152
1984.39	0.0667577
1994.04	0.0668637
2003.68	0.0657754
2013.32	0.0660306
2022.96	0.0670876
2032.6	0.0676388
2042.25	0.068416
2051.89	0.0681948
2061.53	0.067333
2071.17	0.0681623
2080.82	0.0676796
2090.46	0.0674548
2100.1	0.0682502
2109.74	0.0696666
2119.39	0.0683258
2129.03	0.0687214
2138.67	0.0676615
2148.31	0.0689297
2157.95	0.0697615
2167.6	0.0712746
2177.24	0.0709296
2186.88	0.0709461
2196.52	0.0718355
2206.17	0.0717387
2215.81	0.0712002
2225.45	0.0727198
2235.09	0.073648
2244.74	0.0739333
2254.38	0.0730814
2264.02	0.0743422
2273.66	0.0749521
2283.3	0.0751012
2292.95	0.0754566
2302.59	0.0750065
2312.23	0.0752253
2321.87	0.0763698
2331.52	0.0758835
2341.16	0.0761044
2350.8	0.0760989
2360.44	0.0764516
2370.09	0.0762344
2379.73	0.0765952
2389.37	0.0771476
2399.01	0.0776788
2408.66	0.078171
2418.3	0.0776703
2427.94	0.0776722
2437.58	0.0778767
2447.22	0.0783592
2456.87	0.0785577
2466.51	0.0788906
2476.15	0.0788755
2485.79	0.078923
2495.44	0.0789006
2505.08	0.0784005
2514.72	0.0789889
2524.36	0.079614
2534.01	0.0794578
2543.65	0.0805013
2553.29	0.0804266
2562.93	0.0801618
2572.57	0.0807301
2582.22	0.0812683
2591.86	0.0813828
2601.5	0.0821167
2611.14	0.0819255
2620.79	0.0827577
2630.43	0.0831251
2640.07	0.0839048
2649.71	0.0841506
2659.36	0.0841274
2669	0.0843258
2678.64	0.084224
2688.28	0.0846259
2697.93	0.0852136
2707.57	0.0854799
2717.21	0.0857592
2726.85	0.0863621
2736.49	0.0861996
2746.14	0.0864231
2755.78	0.0867982
2765.42	0.0873325
2775.06	0.0872882
2784.71	0.0874393
2794.35	0.0878428
2803.99	0.0877653
2813.63	0.0887613
2823.28	0.0884205
2832.92	0.0889662
2842.56	0.0892005
2852.2	0.0882832
2861.84	0.0891195
2871.49	0.0886552
2881.13	0.0895691
2890.77	0.0891659
2900.41	0.089766
2910.06	0.0900737
2919.7	0.0904994
2929.34	0.0898998
2938.98	0.0892354
2948.62	0.0897537
2958.27	0.0893569
2967.91	0.0896314
2977.55	0.0903358
2987.2	0.0901114
2996.84	0.0899607
3006.48	0.0906363
3016.12	0.0903392
3025.76	0.0921991
3035.41	0.0912166
3045.05	0.0922204
3054.69	0.0925622
3064.33	0.0923987
3073.98	0.0926055
3083.62	0.0929278
3093.26	0.093198
3102.9	0.093992
3112.55	0.0939966
3122.19	0.0941914
3131.83	0.0941622
3141.47	0.0950373
3151.11	0.0950923
3160.76	0.0955104
3170.4	0.0947298
3180.04	0.0950914
3189.68	0.095719
3199.33	0.0957171
3208.97	0.0952513
3218.61	0.0959947
3228.25	0.0959519
3237.9	0.095351
3247.54	0.0959825
3257.18	0.0959677
3266.82	0.0963016
3276.47	0.0961037
3286.11	0.0963734
3295.75	0.0963584
3305.39	0.0972927
3315.03	0.0973646
3324.68	0.0963158
3334.32	0.096782
3343.96	0.0971046
3353.6	0.0975744
3363.25	0.0975808
3372.89	0.0973086
3382.53	0.0977879
3392.17	0.0985321
3401.82	0.0977845
3411.46	0.0973557
3421.1	0.0974635
3430.74	0.0981923
3440.39	0.0981487
3450.03	0.0967512
3459.67	0.0974484
3469.31	0.0983753
3478.95	0.0974467
3488.6	0.0971853
3498.24	0.0973139
3507.88	0.097621
3517.52	0.098668
3527.17	0.0974062
3536.81	0.0975732
3546.45	0.0980307
3556.09	0.0980289
3565.74	0.0980886
3575.38	0.0972703
3585.02	0.097944
3594.66	0.0980039
3604.3	0.0981484
3613.95	0.0985115
3623.59	0.0990468
3633.23	0.0983334
3642.87	0.099471
3652.52	0.0998753
3662.16	0.0991627
3671.8	0.100121
3681.44	0.0992871
3691.09	0.100135
3700.73	0.0999796
3710.37	0.101729
3720.01	0.101342
3729.66	0.100678
3739.3	0.101337
3748.94	0.102189
3758.58	0.102887
3768.22	0.103206
3777.87	0.102266
3787.51	0.103771
3797.15	0.103277
3806.79	0.104141
3816.44	0.104856
3826.08	0.103163
3835.72	0.10591
3845.36	0.102913
3855.01	0.105231
3864.65	0.105603
3874.29	0.106005
3883.93	0.105442
3893.57	0.105552
3903.22	0.105784
3912.86	0.104904
3922.5	0.105338
3932.14	0.105701
3941.79	0.105966
3951.43	0.106494
3961.07	0.106354
3970.71	0.106471
3980.36	0.107488
3990	0.106931
3999.64	0.107795
