Measurement: Infrared, Infrared Data Processed
Mineral: Hematite
Rruff sample: R050300
Ideal chemistry: Fe^3+^_2_O_3_
Locality: Argentina
Source: Eugene Schlepp
Description: Pseudomorph after magnetite
Measured chemistry: Fe_2.00_O_3_
x	intensity
399.193	0.281892
408.835	0.351498
418.477	0.432897
428.12	0.457793
437.762	0.446342
447.404	0.418564
457.047	0.385151
466.689	0.352175
476.331	0.318741
485.974	0.293497
495.616	0.315743
505.258	0.435164
514.901	0.469508
524.543	0.423765
534.185	0.373837
543.828	0.329068
553.47	0.291395
563.112	0.25799
572.755	0.231794
582.397	0.209703
592.039	0.188159
601.682	0.167645
611.324	0.148999
620.966	0.12942
630.609	0.111452
640.251	0.0948016
649.893	0.0769835
659.536	0.0651582
669.178	0.0604026
678.82	0.0584763
688.463	0.0571313
698.105	0.0556566
707.747	0.0543305
717.39	0.0515428
727.032	0.0484131
736.674	0.0449445
746.317	0.0426476
755.959	0.0415284
765.601	0.0414835
775.244	0.041941
784.886	0.0436938
794.528	0.044232
804.171	0.045515
813.813	0.0469478
823.455	0.0486909
833.098	0.0501582
842.74	0.0515763
852.382	0.0522769
862.025	0.053301
871.667	0.0542153
881.309	0.0556505
890.952	0.0587469
900.594	0.064326
910.236	0.070074
919.879	0.0734337
929.521	0.0738998
939.163	0.0747558
948.806	0.0759875
958.448	0.077778
968.09	0.0788637
977.733	0.0805909
987.375	0.082991
997.017	0.0865642
1006.66	0.0905298
1016.3	0.0948849
1025.94	0.0995797
1035.59	0.104123
1045.23	0.108362
1054.87	0.112318
1064.51	0.115961
1074.16	0.120232
1083.8	0.123531
1093.44	0.126771
1103.08	0.13111
1112.72	0.133417
1122.37	0.135674
1132.01	0.138205
1141.65	0.141339
1151.3	0.143547
1160.94	0.146113
1170.58	0.148603
1180.22	0.151229
1189.86	0.154494
1199.51	0.157135
1209.15	0.159656
1218.79	0.162639
1228.43	0.165677
1238.08	0.169228
1247.72	0.171758
1257.36	0.174552
1267	0.178189
1276.64	0.182388
1286.29	0.185552
1295.93	0.189976
1305.57	0.194011
1315.21	0.19764
1324.86	0.201929
1334.5	0.205744
1344.14	0.209297
1353.78	0.212487
1363.43	0.216779
1373.07	0.220281
1382.71	0.223541
1392.35	0.227831
1401.99	0.23094
1411.64	0.234389
1421.28	0.237111
1430.92	0.240534
1440.57	0.242954
1450.21	0.245272
1459.85	0.247762
1469.49	0.248663
1479.13	0.250788
1488.78	0.254664
1498.42	0.257772
1508.06	0.260652
1517.7	0.263694
1527.35	0.266597
1536.99	0.269276
1546.63	0.271349
1556.27	0.273772
1565.91	0.276593
1575.56	0.279197
1585.2	0.28096
1594.84	0.284104
1604.48	0.285505
1614.13	0.287767
1623.77	0.289203
1633.41	0.291049
1643.05	0.293143
1652.7	0.295453
1662.34	0.296198
1671.98	0.298748
1681.62	0.299607
1691.27	0.301917
1700.91	0.304696
1710.55	0.306431
1720.19	0.30876
1729.84	0.30998
1739.48	0.310111
1749.12	0.311179
1758.76	0.314405
1768.4	0.317188
1778.05	0.318511
1787.69	0.321945
1797.33	0.323444
1806.97	0.325154
1816.62	0.327608
1826.26	0.329155
1835.9	0.332671
1845.54	0.333378
1855.18	0.336228
1864.83	0.339084
1874.47	0.340746
1884.11	0.343462
1893.75	0.344586
1903.4	0.344377
1913.04	0.347932
1922.68	0.350037
1932.32	0.351087
1941.97	0.354192
1951.61	0.354931
1961.25	0.357713
1970.89	0.3574
1980.54	0.361261
1990.18	0.360196
1999.82	0.360299
2009.46	0.364452
2019.11	0.366938
2028.75	0.365128
2038.39	0.368189
2048.03	0.370264
2057.67	0.367685
2067.32	0.375036
2076.96	0.374481
2086.6	0.374457
2096.24	0.374143
2105.89	0.373659
2115.53	0.376978
2125.17	0.378262
2134.81	0.379619
2144.45	0.383481
2154.1	0.382399
2163.74	0.383066
2173.38	0.384817
2183.02	0.389415
2192.67	0.387239
2202.31	0.389354
2211.95	0.38766
2221.59	0.391064
2231.24	0.390557
2240.88	0.393584
2250.52	0.394724
2260.16	0.396307
2269.8	0.396085
2279.45	0.399295
2289.09	0.398832
2298.73	0.400065
2308.38	0.400757
2318.02	0.401722
2327.66	0.402008
2337.3	0.405176
2346.94	0.403136
2356.59	0.408064
2366.23	0.407852
2375.87	0.405813
2385.51	0.40685
2395.16	0.409265
2404.8	0.409757
2414.44	0.410465
2424.08	0.411162
2433.72	0.413545
2443.37	0.414234
2453.01	0.41633
2462.65	0.416151
2472.29	0.417103
2481.94	0.416788
2491.58	0.419963
2501.22	0.42201
2510.86	0.421183
2520.51	0.422598
2530.15	0.419254
2539.79	0.423049
2549.43	0.424111
2559.07	0.425648
2568.72	0.42605
2578.36	0.428281
2588	0.42864
2597.64	0.429839
2607.29	0.430498
2616.93	0.430616
2626.57	0.430477
2636.21	0.432363
2645.86	0.433175
2655.5	0.432564
2665.14	0.431456
2674.78	0.43566
2684.43	0.434463
2694.07	0.432995
2703.71	0.435836
2713.35	0.436481
2722.99	0.438036
2732.64	0.439144
2742.28	0.439564
2751.92	0.438476
2761.56	0.441263
2771.21	0.441475
2780.85	0.441324
2790.49	0.443047
2800.13	0.445292
2809.78	0.445914
2819.42	0.446464
2829.06	0.448239
2838.7	0.448196
2848.34	0.446432
2857.99	0.44675
2867.63	0.447889
2877.27	0.447982
2886.91	0.450826
2896.56	0.452016
2906.2	0.451601
2915.84	0.448644
2925.48	0.446138
2935.13	0.447259
2944.77	0.448815
2954.41	0.450035
2964.05	0.450307
2973.7	0.45095
2983.34	0.450632
2992.98	0.45269
3002.62	0.453914
3012.26	0.45502
3021.91	0.455852
3031.55	0.458577
3041.19	0.457463
3050.83	0.458063
3060.48	0.460705
3070.12	0.459415
3079.76	0.460777
3089.4	0.460166
3099.05	0.46332
3108.69	0.461993
3118.33	0.465727
3127.97	0.466504
3137.61	0.466005
3147.26	0.467962
3156.9	0.466289
3166.54	0.467474
3176.18	0.466922
3185.83	0.469678
3195.47	0.468659
3205.11	0.471435
3214.75	0.473176
3224.4	0.471943
3234.04	0.470706
3243.68	0.477094
3253.32	0.47452
3262.97	0.474807
3272.61	0.473606
3282.25	0.479067
3291.89	0.477762
3301.53	0.478756
3311.18	0.478969
3320.82	0.47784
3330.46	0.475951
3340.1	0.479588
3349.75	0.479448
3359.39	0.481492
3369.03	0.479854
3378.67	0.478592
3388.32	0.481621
3397.96	0.482853
3407.6	0.482652
3417.24	0.481772
3426.89	0.483155
3436.53	0.480773
3446.17	0.480862
3455.81	0.484286
3465.45	0.479419
3475.1	0.482004
3484.74	0.480729
3494.38	0.484341
3504.02	0.484026
3513.67	0.482228
3523.31	0.482983
3532.95	0.482826
3542.59	0.480152
3552.24	0.485381
3561.88	0.483403
3571.52	0.485418
3581.16	0.479094
3590.8	0.483127
3600.45	0.486056
3610.09	0.486024
3619.73	0.485786
3629.37	0.485496
3639.02	0.483778
3648.66	0.484607
3658.3	0.487408
3667.94	0.489033
3677.59	0.48814
3687.23	0.490535
3696.87	0.491845
3706.51	0.491602
3716.16	0.495609
3725.8	0.489218
3735.44	0.495101
3745.08	0.494881
3754.72	0.49152
3764.37	0.493062
3774.01	0.495137
3783.65	0.50039
3793.29	0.496974
3802.94	0.496275
3812.58	0.495938
3822.22	0.496138
3831.86	0.495636
3841.51	0.500536
3851.15	0.502597
3860.79	0.498179
3870.43	0.495189
3880.07	0.500371
3889.72	0.500008
3899.36	0.49919
3909	0.500845
3918.64	0.501947
3928.29	0.50088
3937.93	0.500952
3947.57	0.497241
3957.21	0.510961
3966.86	0.504174
3976.5	0.506659
3986.14	0.50695
3995.78	0.508
