Measurement: Infrared, Infrared Data Processed
Mineral: Heulandite-Ca
Rruff sample: R040021
Ideal chemistry: (Ca,Na,K)_5_(Si_27_Al_9_)O_72_26H_2_O
Locality: Prospect Park, Patterson, Passaic County, New Jersey, USA
Source: University of Arizona Mineral Museum
Description: Group of colorless lamellar crystals
Measured chemistry: Na_0.25_(Na_0.55_K_0.45_)_Σ=1_(Ca_2.42_Na_0.85_Sr_0.73_)_Σ=4.00_(Si_27.60_Al_8.40_)_Σ=36_O_72_·24H_2_O ; H_2_O estimated by difference
x	intensity
399.193	0
408.835	0.201745
418.477	0.203645
428.12	0.206903
437.762	0.223178
447.404	0.229115
457.047	0.218532
466.689	0.203497
476.331	0.167194
485.974	0.130907
495.616	0.108182
505.258	0.100827
514.901	0.103839
524.543	0.103033
534.185	0.0913329
543.828	0.0901369
553.47	0.0951786
563.112	0.100223
572.755	0.104637
582.397	0.107481
592.039	0.105894
601.682	0.0923141
611.324	0.0743724
620.966	0.0643789
630.609	0.0599371
640.251	0.0603862
649.893	0.0632648
659.536	0.0667328
669.178	0.0644011
678.82	0.0589659
688.463	0.0576107
698.105	0.0597989
707.747	0.0636412
717.39	0.0653511
727.032	0.0635687
736.674	0.0594899
746.317	0.0547952
755.959	0.0508095
765.601	0.0492756
775.244	0.0486378
784.886	0.0477846
794.528	0.04267
804.171	0.0343937
813.813	0.0283835
823.455	0.0253008
833.098	0.0246401
842.74	0.0256523
852.382	0.028065
862.025	0.0307848
871.667	0.0377689
881.309	0.042658
890.952	0.0422391
900.594	0.0481258
910.236	0.0558798
919.879	0.0676611
929.521	0.086112
939.163	0.116556
948.806	0.166012
958.448	0.234073
968.09	0.306792
977.733	0.358613
987.375	0.382184
997.017	0.38826
1006.66	0.38578
1016.3	0.373643
1025.94	0.3564
1035.59	0.337845
1045.23	0.315816
1054.87	0.28759
1064.51	0.251118
1074.16	0.208513
1083.8	0.174127
1093.44	0.153331
1103.08	0.140631
1112.72	0.131774
1122.37	0.125143
1132.01	0.118968
1141.65	0.111676
1151.3	0.103732
1160.94	0.0951994
1170.58	0.0881808
1180.22	0.0820263
1189.86	0.0749446
1199.51	0.0630368
1209.15	0.0444875
1218.79	0.0287718
1228.43	0.0193551
1238.08	0.0147846
1247.72	0.0120255
1257.36	0.0103519
1267	0.00913056
1276.64	0.00810479
1286.29	0.00759938
1295.93	0.00717854
1305.57	0.00699083
1315.21	0.00694052
1324.86	0.00688621
1334.5	0.00653509
1344.14	0.00675456
1353.78	0.00670105
1363.43	0.00718709
1373.07	0.00746276
1382.71	0.00796027
1392.35	0.00936876
1401.99	0.0110413
1411.64	0.0139362
1421.28	0.0168755
1430.92	0.0187118
1440.57	0.0203989
1450.21	0.0217351
1459.85	0.0222659
1469.49	0.0211524
1479.13	0.0193809
1488.78	0.0171606
1498.42	0.0151696
1508.06	0.0132203
1517.7	0.0115598
1527.35	0.0106967
1536.99	0.010099
1546.63	0.0107832
1556.27	0.0110848
1565.91	0.0120464
1575.56	0.0133055
1585.2	0.0153953
1594.84	0.0193944
1604.48	0.025659
1614.13	0.0338462
1623.77	0.0391915
1633.41	0.0375231
1643.05	0.0310949
1652.7	0.0237954
1662.34	0.0180925
1671.98	0.0141727
1681.62	0.0116588
1691.27	0.00940368
1700.91	0.00822245
1710.55	0.0072314
1720.19	0.00632188
1729.84	0.00593261
1739.48	0.00499272
1749.12	0.0049151
1758.76	0.00471298
1768.4	0.00486337
1778.05	0.00495362
1787.69	0.00491936
1797.33	0.00508864
1806.97	0.0044941
1816.62	0.00419449
1826.26	0.00444307
1835.9	0.00438966
1845.54	0.00362225
1855.18	0.00334983
1864.83	0.00334706
1874.47	0.00319785
1884.11	0.00284057
1893.75	0.00236593
1903.4	0.00185786
1913.04	0.00146055
1922.68	0.000744727
1932.32	-0.00079261
1941.97	-0.00137545
1951.61	-0.00290379
1961.25	-0.004003
1970.89	-0.00636164
1980.54	-0.00227526
1990.18	-0.0040009
1999.82	-0.00518261
2009.46	-0.00830963
2019.11	-0.00610709
2028.75	-0.00532367
2038.39	-0.00401982
2048.03	-0.00376622
2057.67	-0.00211936
2067.32	-0.00113899
2076.96	-0.000931646
2086.6	-0.000365922
2096.24	-0.000934054
2105.89	-0.000777591
2115.53	-0.000675808
2125.17	-0.00191014
2134.81	-0.00383895
2144.45	-0.0059169
2154.1	-0.0107744
2163.74	-0.00128352
2173.38	-0.0016713
2183.02	0.000359987
2192.67	7.66732e-06
2202.31	0.000571244
2211.95	0.000994648
2221.59	0.00191715
2231.24	0.000810198
2240.88	0.00259996
2250.52	0.00148677
2260.16	0.00233263
2269.8	0.00358555
2279.45	0.00401935
2289.09	0.00518886
2298.73	0.00431474
2308.38	0.00458996
2318.02	0.00433412
2327.66	0.00437054
2337.3	0.00390094
2346.94	0.00404634
2356.59	0.00380221
2366.23	0.00302788
2375.87	0.00313404
2385.51	0.00382857
2395.16	0.00323515
2404.8	0.0040549
2414.44	0.00521081
2424.08	0.00460039
2433.72	0.00505408
2443.37	0.00513058
2453.01	0.0057318
2462.65	0.00457083
2472.29	0.00566128
2481.94	0.00525558
2491.58	0.00530045
2501.22	0.00497399
2510.86	0.00488095
2520.51	0.00548912
2530.15	0.0054424
2539.79	0.00476424
2549.43	0.00536378
2559.07	0.00599576
2568.72	0.00623953
2578.36	0.0067647
2588	0.00623798
2597.64	0.00642251
2607.29	0.00645095
2616.93	0.00634479
2626.57	0.00663701
2636.21	0.00710446
2645.86	0.00697914
2655.5	0.00663074
2665.14	0.00681554
2674.78	0.00625675
2684.43	0.00685393
2694.07	0.00648062
2703.71	0.00693781
2713.35	0.00669624
2722.99	0.00615849
2732.64	0.00611904
2742.28	0.00703793
2751.92	0.00644721
2761.56	0.00777339
2771.21	0.00735453
2780.85	0.00765655
2790.49	0.00728846
2800.13	0.00855132
2809.78	0.00792943
2819.42	0.00838792
2829.06	0.00811555
2838.7	0.00796351
2848.34	0.00906062
2857.99	0.00918114
2867.63	0.00990646
2877.27	0.0090299
2886.91	0.00992993
2896.56	0.010376
2906.2	0.0107448
2915.84	0.0105158
2925.48	0.0113647
2935.13	0.0116334
2944.77	0.0114507
2954.41	0.0115741
2964.05	0.0117903
2973.7	0.0131725
2983.34	0.0133167
2992.98	0.01287
3002.62	0.0150948
3012.26	0.0143091
3021.91	0.0160247
3031.55	0.0168387
3041.19	0.0167095
3050.83	0.0169736
3060.48	0.017934
3070.12	0.0196516
3079.76	0.0197766
3089.4	0.0208212
3099.05	0.0220031
3108.69	0.0240546
3118.33	0.0246646
3127.97	0.0257529
3137.61	0.0252897
3147.26	0.0285655
3156.9	0.0284861
3166.54	0.0317875
3176.18	0.0336693
3185.83	0.0339314
3195.47	0.0355344
3205.11	0.0354588
3214.75	0.0370259
3224.4	0.0364502
3234.04	0.0377709
3243.68	0.0402012
3253.32	0.0389099
3262.97	0.0400013
3272.61	0.0405073
3282.25	0.0426511
3291.89	0.0433149
3301.53	0.0441916
3311.18	0.0439274
3320.82	0.045637
3330.46	0.0471251
3340.1	0.0478751
3349.75	0.0498024
3359.39	0.049806
3369.03	0.0521089
3378.67	0.0514933
3388.32	0.0514757
3397.96	0.0521654
3407.6	0.0511003
3417.24	0.0523581
3426.89	0.0515457
3436.53	0.0529248
3446.17	0.0513444
3455.81	0.0512073
3465.45	0.0501125
3475.1	0.0507169
3484.74	0.0497018
3494.38	0.0507727
3504.02	0.050846
3513.67	0.0490851
3523.31	0.0506447
3532.95	0.0502021
3542.59	0.0484594
3552.24	0.0490975
3561.88	0.0498668
3571.52	0.0490585
3581.16	0.0462344
3590.8	0.0500055
3600.45	0.0498335
3610.09	0.0438616
3619.73	0.0403825
3629.37	0.0345138
3639.02	0.0301936
3648.66	0.0229801
3658.3	0.0158705
3667.94	0.00979195
3677.59	0.0103346
3687.23	0.0117779
3696.87	0.00846322
3706.51	0.00835761
3716.16	0.00679333
3725.8	0.007134
3735.44	0.00655755
3745.08	0.00647757
3754.72	0.00859796
3764.37	0.00544893
3774.01	0.00795188
3783.65	0.00900286
3793.29	0.00932116
3802.94	0.00688367
3812.58	0.00767568
3822.22	0.00915045
3831.86	0.00752706
3841.51	0.00798769
3851.15	0.00751344
3860.79	0.0077277
3870.43	0.00794863
3880.07	0.00798146
3889.72	0.0109989
3899.36	0.0101741
3909	0.0101819
3918.64	0.00682198
3928.29	0.00832927
3937.93	0.00822728
3947.57	0.0111687
3957.21	0.0107989
3966.86	0.0080778
3976.5	0.00622669
3986.14	0.00900243
3995.78	0.0111808
