Measurement: Infrared, Infrared Data Processed
Mineral: Heulandite-Ca
Rruff sample: R050017
Ideal chemistry: (Ca,Na,K)_5_(Si_27_Al_9_)O_72_26H_2_O
Locality: Poona, Maharashtra State, India
Source: Eugene Schlepp
Description: Single crystals
Measured chemistry: (Ca_.70_Na_.22_K_.02_[box]_0.06_)_5_(Si_0.77_Al_0.23_)_36_O_72_Â·24H_2_O
x	intensity
399.193	0
408.835	0.196052
418.477	0.200707
428.12	0.202603
437.762	0.216191
447.404	0.227734
457.047	0.215769
466.689	0.198539
476.331	0.166619
485.974	0.130651
495.616	0.109072
505.258	0.102499
514.901	0.106739
524.543	0.106707
534.185	0.0990707
543.828	0.0975658
553.47	0.0990188
563.112	0.103823
572.755	0.106953
582.397	0.106792
592.039	0.104356
601.682	0.0941863
611.324	0.079261
620.966	0.0701665
630.609	0.0653985
640.251	0.0640766
649.893	0.0660316
659.536	0.068881
669.178	0.0691087
678.82	0.0639808
688.463	0.0621123
698.105	0.0631449
707.747	0.0664352
717.39	0.0690401
727.032	0.067817
736.674	0.0641026
746.317	0.0591952
755.959	0.0548948
765.601	0.0533504
775.244	0.054089
784.886	0.0549574
794.528	0.051717
804.171	0.0429487
813.813	0.0354249
823.455	0.0309576
833.098	0.0287648
842.74	0.0302939
852.382	0.033127
862.025	0.0376639
871.667	0.0417871
881.309	0.0467516
890.952	0.0524865
900.594	0.0593325
910.236	0.06817
919.879	0.0813214
929.521	0.101478
939.163	0.134066
948.806	0.181925
958.448	0.247217
968.09	0.318879
977.733	0.369371
987.375	0.394637
997.017	0.400521
1006.66	0.398461
1016.3	0.389387
1025.94	0.370284
1035.59	0.348499
1045.23	0.326844
1054.87	0.301537
1064.51	0.268875
1074.16	0.225928
1083.8	0.186152
1093.44	0.161263
1103.08	0.146879
1112.72	0.137312
1122.37	0.130115
1132.01	0.123786
1141.65	0.116756
1151.3	0.108404
1160.94	0.100054
1170.58	0.0921689
1180.22	0.0862388
1189.86	0.0797627
1199.51	0.0704988
1209.15	0.0543775
1218.79	0.0362658
1228.43	0.0238005
1238.08	0.0175608
1247.72	0.0139487
1257.36	0.0120626
1267	0.00983539
1276.64	0.00918438
1286.29	0.0082474
1295.93	0.00772137
1305.57	0.00756887
1315.21	0.00725042
1324.86	0.00682629
1334.5	0.00693475
1344.14	0.00649903
1353.78	0.00657307
1363.43	0.00660828
1373.07	0.00666808
1382.71	0.00675637
1392.35	0.0069739
1401.99	0.0069899
1411.64	0.00745126
1421.28	0.00744485
1430.92	0.00751535
1440.57	0.00801134
1450.21	0.00797159
1459.85	0.00789977
1469.49	0.00767024
1479.13	0.00721624
1488.78	0.00665663
1498.42	0.00655762
1508.06	0.00586314
1517.7	0.00635057
1527.35	0.00706655
1536.99	0.00774534
1546.63	0.00835686
1556.27	0.00933429
1565.91	0.0108074
1575.56	0.0117597
1585.2	0.0152735
1594.84	0.0199127
1604.48	0.0275311
1614.13	0.0372068
1623.77	0.0416125
1633.41	0.0397592
1643.05	0.0330014
1652.7	0.0249708
1662.34	0.0207549
1671.98	0.0159057
1681.62	0.0121742
1691.27	0.0102825
1700.91	0.00688031
1710.55	0.00816302
1720.19	0.00635772
1729.84	0.0057782
1739.48	0.00406975
1749.12	0.00370591
1758.76	0.00421781
1768.4	0.00414346
1778.05	0.00450905
1787.69	0.0045405
1797.33	0.00418857
1806.97	0.00449118
1816.62	0.00324992
1826.26	0.00352673
1835.9	0.00376894
1845.54	0.00271548
1855.18	0.00327922
1864.83	0.00280953
1874.47	0.00248409
1884.11	0.00105136
1893.75	0.00110338
1903.4	0.00145664
1913.04	0.000994084
1922.68	-0.0001682
1932.32	-0.00315887
1941.97	-0.00251221
1951.61	-0.00326888
1961.25	-0.0047347
1970.89	-0.00635258
1980.54	-0.00224302
1990.18	-0.00547006
1999.82	-0.00635918
2009.46	-0.00834951
2019.11	-0.00756445
2028.75	-0.0087654
2038.39	-0.00488808
2048.03	-0.0037434
2057.67	-0.00175069
2067.32	-0.00226285
2076.96	-0.000660918
2086.6	-0.000630857
2096.24	-0.00131555
2105.89	-0.000345335
2115.53	-0.000370811
2125.17	-0.00247715
2134.81	-0.00501299
2144.45	-0.00434485
2154.1	-0.00810163
2163.74	-0.00242755
2173.38	-0.00388425
2183.02	-0.00385414
2192.67	-0.00104379
2202.31	7.73974e-05
2211.95	-0.000895822
2221.59	0.00188703
2231.24	0.000910062
2240.88	0.00247386
2250.52	0.00307576
2260.16	0.00186625
2269.8	0.00446203
2279.45	0.00341151
2289.09	0.00537573
2298.73	0.00595995
2308.38	0.00542611
2318.02	0.00606704
2327.66	0.00474247
2337.3	0.00488295
2346.94	0.00435312
2356.59	0.00427298
2366.23	0.00318593
2375.87	0.00401793
2385.51	0.00414375
2395.16	0.00375948
2404.8	0.00390052
2414.44	0.00486756
2424.08	0.00476225
2433.72	0.00466958
2443.37	0.00601504
2453.01	0.00645968
2462.65	0.00675371
2472.29	0.00571795
2481.94	0.00653356
2491.58	0.00601019
2501.22	0.00594862
2510.86	0.00674821
2520.51	0.00691686
2530.15	0.00641781
2539.79	0.0066593
2549.43	0.00764003
2559.07	0.00785798
2568.72	0.00851363
2578.36	0.00710514
2588	0.00781651
2597.64	0.0083656
2607.29	0.00896917
2616.93	0.00857867
2626.57	0.00947265
2636.21	0.00941342
2645.86	0.00880337
2655.5	0.00978963
2665.14	0.00821754
2674.78	0.00834473
2684.43	0.00831975
2694.07	0.00921612
2703.71	0.00987772
2713.35	0.00923227
2722.99	0.0100849
2732.64	0.0100155
2742.28	0.00964165
2751.92	0.00944292
2761.56	0.0105587
2771.21	0.0109963
2780.85	0.0107008
2790.49	0.0106538
2800.13	0.0112676
2809.78	0.0119208
2819.42	0.0115232
2829.06	0.0122446
2838.7	0.0120122
2848.34	0.0121225
2857.99	0.0131132
2867.63	0.0136148
2877.27	0.0146565
2886.91	0.0149653
2896.56	0.01556
2906.2	0.01479
2915.84	0.015259
2925.48	0.0159314
2935.13	0.0172807
2944.77	0.018074
2954.41	0.0166235
2964.05	0.018139
2973.7	0.0194985
2983.34	0.0191952
2992.98	0.0205653
3002.62	0.0205501
3012.26	0.0216098
3021.91	0.0227235
3031.55	0.0234279
3041.19	0.0230618
3050.83	0.0250699
3060.48	0.0262244
3070.12	0.0273345
3079.76	0.0283313
3089.4	0.0302637
3099.05	0.0313813
3108.69	0.0323295
3118.33	0.0338818
3127.97	0.035875
3137.61	0.0378089
3147.26	0.0408531
3156.9	0.0422497
3166.54	0.0427292
3176.18	0.0460335
3185.83	0.047067
3195.47	0.0496258
3205.11	0.0508131
3214.75	0.0537142
3224.4	0.0540991
3234.04	0.0557976
3243.68	0.0561055
3253.32	0.0585964
3262.97	0.0579344
3272.61	0.0620511
3282.25	0.061196
3291.89	0.0627943
3301.53	0.0642586
3311.18	0.0655842
3320.82	0.0686356
3330.46	0.0684337
3340.1	0.0697258
3349.75	0.072711
3359.39	0.0735357
3369.03	0.0753295
3378.67	0.0738068
3388.32	0.0746582
3397.96	0.0757239
3407.6	0.074924
3417.24	0.0732554
3426.89	0.0718556
3436.53	0.072347
3446.17	0.070803
3455.81	0.07065
3465.45	0.0698934
3475.1	0.067838
3484.74	0.0669724
3494.38	0.0648751
3504.02	0.0648235
3513.67	0.0636323
3523.31	0.0637943
3532.95	0.0623993
3542.59	0.0634902
3552.24	0.0602866
3561.88	0.0600827
3571.52	0.0599412
3581.16	0.0571951
3590.8	0.0586082
3600.45	0.0594074
3610.09	0.0587876
3619.73	0.0518621
3629.37	0.0480101
3639.02	0.0393936
3648.66	0.0302383
3658.3	0.0221743
3667.94	0.0175381
3677.59	0.0157584
3687.23	0.0113374
3696.87	0.00894068
3706.51	0.0117796
3716.16	0.0101882
3725.8	0.0100684
3735.44	0.00989313
3745.08	0.0101751
3754.72	0.0110433
3764.37	0.0100243
3774.01	0.0107673
3783.65	0.0117288
3793.29	0.0113196
3802.94	0.0125761
3812.58	0.0122376
3822.22	0.0105961
3831.86	0.00957323
3841.51	0.00936619
3851.15	0.0119948
3860.79	0.00908787
3870.43	0.00955069
3880.07	0.0105979
3889.72	0.0126349
3899.36	0.0111437
3909	0.00994052
3918.64	0.0107548
3928.29	0.0104038
3937.93	0.00909707
3947.57	0.0103928
3957.21	0.0109296
3966.86	0.010925
3976.5	0.0103536
3986.14	0.0128622
3995.78	0.0139271
