Measurement: Infrared, Infrared Data Processed
Mineral: Hopeite
Rruff sample: R050254
Ideal chemistry: Zn^2+^_3_(P^5+^O_4_)_2_4H_2_O
Locality: Broken Hill mine, Kabwe, Zambia
Source: Marcus Origlieri
Description: Reddish-orange tabular single crystal
Measured chemistry: (Zn_2.93_Mg_0.07_)_Σ=3_(P_1.00_O_4_)_2_·4H_2_O
x	intensity
395.336	0.086131
404.978	0.082184
414.62	0.0803241
424.263	0.082778
433.905	0.0829186
443.547	0.0784227
453.19	0.0784026
462.832	0.0807246
472.474	0.0820633
482.117	0.0857623
491.759	0.094176
501.401	0.101816
511.044	0.102153
520.686	0.106926
530.328	0.113757
539.971	0.125254
549.613	0.146767
559.255	0.167512
568.898	0.173637
578.54	0.173605
588.182	0.160645
597.825	0.149377
607.467	0.135988
617.109	0.144333
626.752	0.170559
636.394	0.17314
646.036	0.13524
655.679	0.0983248
665.321	0.0777327
674.963	0.0670674
684.606	0.0615155
694.248	0.0584932
703.89	0.0568433
713.533	0.056036
723.175	0.0550325
732.817	0.0536989
742.46	0.053062
752.102	0.0518244
761.744	0.0503956
771.387	0.0483939
781.029	0.0459187
790.671	0.043684
800.314	0.0408795
809.956	0.0393695
819.598	0.038212
829.241	0.0383167
838.883	0.0386782
848.525	0.0395544
858.168	0.0414266
867.81	0.044107
877.452	0.0498028
887.095	0.0608402
896.737	0.0829547
906.379	0.126908
916.022	0.212544
925.664	0.302842
935.306	0.287918
944.949	0.293594
954.591	0.239683
964.233	0.111137
973.876	0.0671316
983.518	0.0938983
993.16	0.21486
1002.8	0.28893
1012.45	0.262986
1022.09	0.22743
1031.73	0.204523
1041.37	0.128076
1051.01	0.163318
1060.66	0.227165
1070.3	0.227909
1079.94	0.202958
1089.58	0.210005
1099.23	0.2338
1108.87	0.219234
1118.51	0.180764
1128.15	0.156154
1137.8	0.125281
1147.44	0.0879683
1157.08	0.0567474
1166.72	0.0297357
1176.37	0.0187845
1186.01	0.0137929
1195.65	0.0108778
1205.29	0.00912733
1214.93	0.00794445
1224.58	0.00711721
1234.22	0.00647414
1243.86	0.00608577
1253.5	0.00584075
1263.15	0.00540612
1272.79	0.00543359
1282.43	0.00541461
1292.07	0.00515836
1301.71	0.00530967
1311.36	0.0053305
1321	0.00527945
1330.64	0.00528598
1340.28	0.00540557
1349.93	0.00553529
1359.57	0.00567566
1369.21	0.00594459
1378.85	0.00616541
1388.5	0.00687592
1398.14	0.00729319
1407.78	0.00778931
1417.42	0.00876432
1427.07	0.00878686
1436.71	0.00980957
1446.35	0.00957883
1455.99	0.0109016
1465.63	0.0103601
1475.28	0.0107222
1484.92	0.0106784
1494.56	0.0115654
1504.2	0.0122993
1513.85	0.0126077
1523.49	0.0135795
1533.13	0.014234
1542.77	0.015601
1552.42	0.0163733
1562.06	0.0179054
1571.7	0.0191617
1581.34	0.0208768
1590.98	0.0231701
1600.63	0.0265039
1610.27	0.0311301
1619.91	0.0367315
1629.55	0.0413779
1639.2	0.0432292
1648.84	0.0412597
1658.48	0.0355122
1668.12	0.0304529
1677.77	0.0248316
1687.41	0.0197045
1697.05	0.0157047
1706.69	0.0112337
1716.34	0.00902176
1725.98	0.00607171
1735.62	0.00513308
1745.26	0.00295134
1754.9	0.00208782
1764.55	0.001663
1774.19	0.00136035
1783.83	0.000861439
1793.47	0.000921677
1803.12	0.000167499
1812.76	-0.000250364
1822.4	-0.000398634
1832.04	-0.000309569
1841.69	-0.000417843
1851.33	-0.000594862
1860.97	-0.000952667
1870.61	-0.000321501
1880.26	-0.00101414
1889.9	-0.00142671
1899.54	-0.00136377
1909.18	-0.00160114
1918.82	-0.000337849
1928.47	-0.000303601
1938.11	0.00105478
1947.75	0.000834762
1957.39	0.00138702
1967.04	0.00131569
1976.68	0.00089827
1986.32	-0.000282631
1995.96	-0.000461036
2005.61	-0.00288679
2015.25	-0.000203332
2024.89	-0.000684631
2034.53	-0.000451489
2044.17	-0.000156041
2053.82	0.00122816
2063.46	0.00058113
2073.1	0.00113178
2082.74	0.00164908
2092.39	0.00178753
2102.03	0.00132813
2111.67	3.55617e-05
2121.31	2.02068e-05
2130.96	0.000562484
2140.6	0.000430757
2150.24	-0.000229706
2159.88	0.00225149
2169.53	0.000997957
2179.17	-0.000138636
2188.81	0.00111284
2198.45	0.000745536
2208.09	-0.000292226
2217.74	0.000140172
2227.38	-6.86955e-05
2237.02	0.00117345
2246.66	-8.19753e-05
2256.31	-4.79545e-05
2265.95	2.09861e-05
2275.59	0.00127181
2285.23	0.00127346
2294.88	0.00151171
2304.52	0.00192102
2314.16	0.0020486
2323.8	0.002516
2333.45	0.00230748
2343.09	0.00299597
2352.73	0.00228579
2362.37	0.00348867
2372.01	0.00233551
2381.66	0.00168294
2391.3	0.0014937
2400.94	0.00119078
2410.58	0.00158918
2420.23	0.00162766
2429.87	0.00194726
2439.51	0.00198418
2449.15	0.00133336
2458.8	0.00158682
2468.44	0.00220218
2478.08	0.0013326
2487.72	0.00171325
2497.36	0.00142332
2507.01	0.00155108
2516.65	0.0019803
2526.29	0.00142076
2535.93	0.00148566
2545.58	0.00156928
2555.22	0.00136287
2564.86	0.00131407
2574.5	0.00160575
2584.14	0.00149242
2593.79	0.00162194
2603.43	0.0022215
2613.07	0.00230905
2622.72	0.00259931
2632.36	0.00233409
2642	0.00236908
2651.64	0.00295673
2661.28	0.00261405
2670.93	0.0027701
2680.57	0.00312329
2690.21	0.00313243
2699.85	0.0030837
2709.5	0.00388601
2719.14	0.00364746
2728.78	0.00415291
2738.42	0.00452934
2748.07	0.00520809
2757.71	0.00500151
2767.35	0.00571727
2776.99	0.00614113
2786.63	0.00698389
2796.28	0.00739901
2805.92	0.0076274
2815.56	0.00811064
2825.2	0.00895735
2834.85	0.0100042
2844.49	0.0103998
2854.13	0.0111861
2863.77	0.0123052
2873.41	0.0130945
2883.06	0.014
2892.7	0.0145715
2902.34	0.0164603
2911.99	0.0171929
2921.63	0.0187304
2931.27	0.0203036
2940.91	0.0207321
2950.55	0.0226202
2960.2	0.0237971
2969.84	0.0249237
2979.48	0.0266189
2989.12	0.0284423
2998.77	0.030191
3008.41	0.0318116
3018.05	0.0347457
3027.69	0.0368063
3037.34	0.04026
3046.98	0.04259
3056.62	0.0459575
3066.26	0.0497356
3075.9	0.0533206
3085.55	0.0577344
3095.19	0.0618842
3104.83	0.0664535
3114.47	0.0704023
3124.12	0.0745716
3133.76	0.0781926
3143.4	0.0813613
3153.04	0.0838603
3162.68	0.0869739
3172.33	0.0883262
3181.97	0.090483
3191.61	0.0904983
3201.26	0.0916081
3210.9	0.0924594
3220.54	0.0927649
3230.18	0.0927242
3239.82	0.0925489
3249.47	0.0939436
3259.11	0.0931918
3268.75	0.0933362
3278.39	0.0923404
3288.04	0.0917831
3297.68	0.0913103
3307.32	0.0896862
3316.96	0.0892014
3326.61	0.0888654
3336.25	0.0869862
3345.89	0.0861324
3355.53	0.0849154
3365.17	0.0833512
3374.82	0.0821389
3384.46	0.0794195
3394.1	0.0775705
3403.74	0.0755511
3413.39	0.0737895
3423.03	0.0711829
3432.67	0.0691396
3442.31	0.0681198
3451.95	0.0672996
3461.6	0.065329
3471.24	0.0636911
3480.88	0.0610781
3490.53	0.0596197
3500.17	0.0588681
3509.81	0.0584133
3519.45	0.0598392
3529.09	0.0618807
3538.74	0.0609285
3548.38	0.0563228
3558.02	0.0468345
3567.66	0.0375914
3577.31	0.0282918
3586.95	0.0216065
3596.59	0.0166797
3606.23	0.0113026
3615.88	0.00753559
3625.52	0.00508865
3635.16	0.00300128
3644.8	0.00276172
3654.44	-0.000158877
3664.09	-0.000254457
3673.73	0.000649774
3683.37	-0.00135067
3693.01	-0.00232207
3702.66	-0.00122741
3712.3	-0.000843883
3721.94	-0.00186975
3731.58	-0.000982297
3741.22	-0.000889516
3750.87	0.00185085
3760.51	-0.00185046
3770.15	-0.00231131
3779.8	-0.00150522
3789.44	-0.00244642
3799.08	-0.00180378
3808.72	-0.00102994
3818.36	-0.00122476
3828.01	-0.00192092
3837.65	0.000126551
3847.29	-0.00228483
3856.93	-0.00201538
3866.58	-0.00261073
3876.22	-0.00249347
3885.86	-0.000446263
3895.5	-0.00255415
3905.14	-0.00194132
3914.79	-0.00264336
3924.43	-0.00190089
3934.07	-0.00262772
3943.71	-0.00160565
3953.36	-0.00220169
3963	-0.00250711
3972.64	-0.00267383
3982.28	-0.00305707
3991.93	-0.00227258
