Measurement: Infrared, Infrared Data Processed
Mineral: Hopeite
Rruff sample: R050254
Ideal chemistry: Zn^2+^_3_(P^5+^O_4_)_2_4H_2_O
Locality: Broken Hill mine, Kabwe, Zambia
Source: Marcus Origlieri
Description: Reddish-orange tabular single crystal
Measured chemistry: (Zn_2.93_Mg_0.07_)_Σ=3_(P_1.00_O_4_)_2_·4H_2_O
x	intensity
50.1401	0.00550287
52.0686	0.00781074
53.9971	0.0066224
55.9255	0.00435056
57.854	0.0045215
59.7825	0.0051584
61.7109	0.00917479
63.6394	0.0112961
65.5679	0.0121493
67.4963	0.010452
69.4248	0.0102159
71.3533	0.0102727
73.2817	0.00981173
75.2102	0.00947029
77.1387	0.010561
79.0671	0.0136505
80.9956	0.0151628
82.9241	0.0131011
84.8525	0.0126216
86.781	0.0125915
88.7095	0.0133558
90.6379	0.0142792
92.5664	0.0147376
94.4948	0.01514
96.4233	0.016625
98.3518	0.0179726
100.28	0.0184498
102.209	0.0188727
104.137	0.0201797
106.066	0.0214514
107.994	0.0212084
109.923	0.0198313
111.851	0.0201328
113.779	0.020372
115.708	0.0203173
117.636	0.0207169
119.565	0.0208223
121.493	0.0200454
123.422	0.0205124
125.35	0.0212415
127.279	0.0219499
129.207	0.0231853
131.136	0.0249244
133.064	0.0258392
134.993	0.0266276
136.921	0.0274979
138.85	0.0286538
140.778	0.0290996
142.707	0.0294756
144.635	0.0293233
146.563	0.0291383
148.492	0.0288768
150.42	0.0280574
152.349	0.0276059
154.277	0.0271533
156.206	0.0263571
158.134	0.0263366
160.063	0.0259065
161.991	0.0254963
163.92	0.0258755
165.848	0.0262869
167.777	0.026282
169.705	0.0265895
171.633	0.0259934
173.562	0.0253722
175.49	0.0256115
177.419	0.0256797
179.347	0.025205
181.276	0.0257287
183.204	0.0258603
185.133	0.0261783
187.061	0.0266304
188.99	0.0274338
190.918	0.0281072
192.847	0.0291333
194.775	0.0300817
196.704	0.0308834
198.632	0.0319907
200.56	0.0331381
202.489	0.0346023
204.417	0.0350052
206.346	0.0354042
208.274	0.0362778
210.203	0.0358676
212.131	0.0348774
214.06	0.0341689
215.988	0.0338071
217.917	0.0334256
219.845	0.0328428
221.774	0.0324438
223.702	0.0324601
225.631	0.0326433
227.559	0.0327098
229.488	0.032235
231.416	0.0323621
233.344	0.0325682
235.273	0.0324548
237.201	0.031831
239.13	0.0314243
241.058	0.0314572
242.987	0.0317484
244.915	0.0322573
246.844	0.0332721
248.772	0.0338166
250.701	0.0341323
252.629	0.0346916
254.558	0.0352282
256.486	0.0352806
258.414	0.0351841
260.343	0.0351383
262.271	0.0351736
264.2	0.0353914
266.128	0.0357953
268.057	0.0359521
269.985	0.0363055
271.914	0.0365178
273.842	0.0364815
275.771	0.0361934
277.699	0.0360135
279.628	0.0354365
281.556	0.0351006
283.485	0.0347041
285.413	0.0343055
287.341	0.0343513
289.27	0.0346883
291.198	0.0350364
293.127	0.0354521
295.055	0.0359169
296.984	0.0363522
298.912	0.0366633
300.841	0.0373516
302.769	0.0380757
304.698	0.0382893
306.626	0.0384365
308.555	0.038692
310.483	0.0389456
312.411	0.0391195
314.34	0.0391282
316.269	0.0391731
318.197	0.0393757
320.125	0.039512
322.054	0.0393848
323.982	0.0393751
325.911	0.0393069
327.839	0.0393288
329.768	0.039031
331.696	0.0390477
333.625	0.0389965
335.553	0.038996
337.482	0.0391157
339.41	0.039235
341.339	0.039532
343.267	0.0400081
345.195	0.0402632
347.124	0.0406149
349.052	0.0410521
350.981	0.0413067
352.909	0.0414141
354.838	0.0411011
356.766	0.0405677
358.695	0.0399661
360.623	0.0389338
362.552	0.0380855
364.48	0.0374207
366.409	0.0364421
368.337	0.0358751
370.265	0.0356487
372.194	0.0352986
374.122	0.0353856
376.051	0.035678
377.979	0.0356733
379.908	0.0358948
381.836	0.0362436
383.765	0.0366555
385.693	0.0372585
387.622	0.0377665
389.55	0.0383155
391.479	0.0386816
393.407	0.0393449
395.336	0.0396404
397.264	0.0396644
399.192	0.0398434
401.121	0.0399182
403.049	0.0398987
404.978	0.0398837
406.906	0.0396836
408.835	0.0398904
410.763	0.0400125
412.692	0.0400707
414.62	0.0404943
416.549	0.0410031
418.477	0.0413578
420.406	0.0415913
422.334	0.0418454
424.262	0.0419831
426.191	0.0421171
428.12	0.0420421
430.048	0.0419352
431.976	0.0421238
433.905	0.0421583
435.833	0.0421126
437.762	0.0420972
439.69	0.0420675
441.619	0.0417102
443.547	0.041599
445.476	0.0418651
447.404	0.0419909
449.333	0.0420782
451.261	0.0423438
453.19	0.0425038
455.118	0.0428142
457.046	0.0429815
458.975	0.0430524
460.903	0.0434296
462.832	0.0435789
464.76	0.0439209
466.689	0.0442529
468.617	0.0445147
470.546	0.0443423
472.474	0.0443929
474.403	0.0450013
476.331	0.0453432
478.26	0.0452512
480.188	0.0448951
482.116	0.0451035
484.045	0.0457853
485.974	0.0458823
487.902	0.0458533
489.83	0.0464566
491.759	0.047309
493.687	0.0478876
495.616	0.0481922
497.544	0.0485096
499.473	0.0491041
501.401	0.049538
503.33	0.0494126
505.258	0.0496283
507.187	0.049884
509.115	0.0499849
511.043	0.0500305
512.972	0.0501025
514.9	0.0501433
516.829	0.0503236
518.757	0.0506922
520.686	0.0512704
522.614	0.0514115
524.543	0.051959
526.471	0.052546
528.4	0.0530048
530.328	0.0536888
532.257	0.0540446
534.185	0.0537611
536.114	0.053909
538.042	0.0549322
539.971	0.0555602
541.899	0.0557951
543.827	0.0565525
545.756	0.0575192
547.684	0.0584431
549.613	0.0593266
551.541	0.0603974
553.47	0.0615262
555.398	0.0626188
557.327	0.063521
559.255	0.0640966
561.184	0.0648115
563.112	0.0651693
565.041	0.065145
566.969	0.065041
568.898	0.06563
570.826	0.0664852
572.755	0.0672849
574.683	0.0680523
576.611	0.0681417
578.54	0.0678996
580.468	0.0677064
582.397	0.0676468
584.325	0.0669761
586.254	0.0665144
588.182	0.0664914
590.111	0.0666759
592.039	0.0662657
593.968	0.0652706
595.896	0.0647312
597.824	0.0644821
599.753	0.0636383
601.682	0.0624829
603.61	0.0614466
605.538	0.0606124
607.467	0.0595928
609.395	0.0593759
611.324	0.0599953
613.252	0.0610968
615.181	0.0619917
617.109	0.0620267
619.038	0.0623897
620.966	0.0639192
622.894	0.0660569
624.823	0.0684448
626.751	0.0706594
628.68	0.0730054
630.608	0.0751821
632.537	0.0765649
634.465	0.0768025
636.394	0.0766011
638.322	0.0762624
640.251	0.0755248
642.179	0.0742286
644.108	0.0726042
646.036	0.0711391
647.965	0.0696137
649.893	0.0681139
651.822	0.0664288
653.75	0.0647866
655.678	0.0633653
657.607	0.0621051
659.535	0.0609847
661.464	0.0601182
663.392	0.0590816
665.321	0.0581964
667.249	0.0580653
669.178	0.0577295
671.106	0.0571488
673.035	0.0570231
674.963	0.0573508
676.892	0.057231
678.82	0.0570189
680.749	0.0568965
682.677	0.0567572
684.606	0.0562107
686.534	0.0553727
688.462	0.0550588
690.391	0.0559118
692.319	0.056639
694.248	0.0569586
696.176	0.0567421
698.105	0.0555697
700.033	0.0538211
