Measurement: Infrared, Infrared Data Processed
Mineral: Howieite
Rruff sample: R060031
Ideal chemistry: Na(Fe^2+^,Fe^3+^,Al,Mg)_12_(Si_6_O_17_)_2_(O,OH)_10_
Locality: Laytonville quarry, near Longvale, California, USA
Source: University of Arizona Mineral Museum
Description: Black bladed crystals associated with quartz and siderite
Measured chemistry: Na_1.00_(Fe^3+^_4.41_Mn_2.68_Fe^2+^_3.89_Al_0.59_Mg_0.43_)_Î£=12_(Si_6.00_O_17_)_2_(OH)_10_
x	intensity
399.193	0.145387
408.835	0.147726
418.477	0.159167
428.12	0.168484
437.762	0.164661
447.404	0.149963
457.047	0.144491
466.689	0.143335
476.331	0.14203
485.974	0.132068
495.616	0.119576
505.258	0.113749
514.901	0.101135
524.543	0.0858052
534.185	0.074398
543.828	0.0650255
553.47	0.0640273
563.112	0.0585423
572.755	0.0613042
582.397	0.0703733
592.039	0.0823298
601.682	0.0931533
611.324	0.097982
620.966	0.0936354
630.609	0.0845206
640.251	0.0732069
649.893	0.0613408
659.536	0.0517093
669.178	0.0407726
678.82	0.0381621
688.463	0.0411488
698.105	0.0471386
707.747	0.0563089
717.39	0.0582771
727.032	0.0552445
736.674	0.0602445
746.317	0.0654847
755.959	0.0724007
765.601	0.0773875
775.244	0.0830792
784.886	0.0876694
794.528	0.0957192
804.171	0.103953
813.813	0.114668
823.455	0.128893
833.098	0.137855
842.74	0.143817
852.382	0.153237
862.025	0.170301
871.667	0.1822
881.309	0.171864
890.952	0.173335
900.594	0.18987
910.236	0.210617
919.879	0.230947
929.521	0.241156
939.163	0.235951
948.806	0.23343
958.448	0.229836
968.09	0.224567
977.733	0.20431
987.375	0.173734
997.017	0.1515
1006.66	0.145596
1016.3	0.151102
1025.94	0.155636
1035.59	0.146495
1045.23	0.129174
1054.87	0.112564
1064.51	0.100457
1074.16	0.0913387
1083.8	0.0841441
1093.44	0.0768463
1103.08	0.0703377
1112.72	0.0629316
1122.37	0.0535609
1132.01	0.0456327
1141.65	0.0384803
1151.3	0.031301
1160.94	0.026789
1170.58	0.0228753
1180.22	0.0199495
1189.86	0.0186093
1199.51	0.0178119
1209.15	0.0174758
1218.79	0.0172684
1228.43	0.0176482
1238.08	0.0181962
1247.72	0.0192999
1257.36	0.0202261
1267	0.0216321
1276.64	0.0230737
1286.29	0.0244081
1295.93	0.0258558
1305.57	0.0273229
1315.21	0.0293078
1324.86	0.0313001
1334.5	0.033392
1344.14	0.035639
1353.78	0.0385235
1363.43	0.0420981
1373.07	0.0462795
1382.71	0.0507573
1392.35	0.0553035
1401.99	0.0565734
1411.64	0.055625
1421.28	0.0530066
1430.92	0.0503202
1440.57	0.0476448
1450.21	0.0452406
1459.85	0.0423626
1469.49	0.0390831
1479.13	0.0363869
1488.78	0.0335345
1498.42	0.0308808
1508.06	0.0284429
1517.7	0.0260657
1527.35	0.0239047
1536.99	0.0215864
1546.63	0.0195955
1556.27	0.0177396
1565.91	0.0172688
1575.56	0.0172069
1585.2	0.0169011
1594.84	0.0167047
1604.48	0.0167668
1614.13	0.0172328
1623.77	0.0175602
1633.41	0.0178322
1643.05	0.0174582
1652.7	0.0167504
1662.34	0.0158404
1671.98	0.0151507
1681.62	0.0145285
1691.27	0.0141856
1700.91	0.0137978
1710.55	0.0135036
1720.19	0.0129679
1729.84	0.0126665
1739.48	0.0121631
1749.12	0.0119767
1758.76	0.0120541
1768.4	0.012013
1778.05	0.0121963
1787.69	0.0127385
1797.33	0.0130681
1806.97	0.0124088
1816.62	0.01142
1826.26	0.0114718
1835.9	0.0113341
1845.54	0.0113104
1855.18	0.0109708
1864.83	0.0110649
1874.47	0.0110935
1884.11	0.0103142
1893.75	0.0105488
1903.4	0.0101138
1913.04	0.0105776
1922.68	0.0103164
1932.32	0.0102224
1941.97	0.00973735
1951.61	0.0102458
1961.25	0.0100207
1970.89	0.0100528
1980.54	0.0118444
1990.18	0.0117765
1999.82	0.0106955
2009.46	0.0118192
2019.11	0.0112279
2028.75	0.0112879
2038.39	0.0113276
2048.03	0.0118475
2057.67	0.0116746
2067.32	0.0112578
2076.96	0.012274
2086.6	0.0119718
2096.24	0.0120534
2105.89	0.012315
2115.53	0.01211
2125.17	0.0118791
2134.81	0.0099764
2144.45	0.0105793
2154.1	0.00998355
2163.74	0.0169606
2173.38	0.0138335
2183.02	0.0160567
2192.67	0.0135707
2202.31	0.0144806
2211.95	0.0146647
2221.59	0.0148895
2231.24	0.0141878
2240.88	0.0151247
2250.52	0.0144537
2260.16	0.0155004
2269.8	0.0161597
2279.45	0.0160719
2289.09	0.0161554
2298.73	0.0155608
2308.38	0.0154357
2318.02	0.0159916
2327.66	0.0151626
2337.3	0.0147968
2346.94	0.0149024
2356.59	0.0151079
2366.23	0.0146548
2375.87	0.0146102
2385.51	0.0149357
2395.16	0.015224
2404.8	0.0146562
2414.44	0.0157891
2424.08	0.0157825
2433.72	0.0160419
2443.37	0.0164583
2453.01	0.0165795
2462.65	0.0165629
2472.29	0.0164292
2481.94	0.0171137
2491.58	0.0172925
2501.22	0.0173945
2510.86	0.0174581
2520.51	0.0175852
2530.15	0.0176134
2539.79	0.0172201
2549.43	0.0172788
2559.07	0.0179129
2568.72	0.0171604
2578.36	0.0179631
2588	0.0183478
2597.64	0.018622
2607.29	0.0184631
2616.93	0.0188368
2626.57	0.0189559
2636.21	0.0192434
2645.86	0.0192832
2655.5	0.0193166
2665.14	0.0188261
2674.78	0.0185609
2684.43	0.0187848
2694.07	0.0189796
2703.71	0.0190664
2713.35	0.0191444
2722.99	0.0197326
2732.64	0.0199291
2742.28	0.0201369
2751.92	0.0206226
2761.56	0.020665
2771.21	0.0208031
2780.85	0.0212096
2790.49	0.0214293
2800.13	0.0217557
2809.78	0.0221035
2819.42	0.0224276
2829.06	0.0229876
2838.7	0.023165
2848.34	0.023691
2857.99	0.0231568
2867.63	0.0242551
2877.27	0.0244858
2886.91	0.0247557
2896.56	0.0247627
2906.2	0.0257262
2915.84	0.025934
2925.48	0.025277
2935.13	0.025619
2944.77	0.0262592
2954.41	0.0256666
2964.05	0.0267851
2973.7	0.0274492
2983.34	0.0274971
2992.98	0.0278918
3002.62	0.0274225
3012.26	0.0276606
3021.91	0.0280301
3031.55	0.0287093
3041.19	0.0286084
3050.83	0.0290428
3060.48	0.0294353
3070.12	0.0293362
3079.76	0.0300011
3089.4	0.0308415
3099.05	0.0308824
3108.69	0.0316918
3118.33	0.0318249
3127.97	0.0325131
3137.61	0.0332777
3147.26	0.0332431
3156.9	0.0336331
3166.54	0.0344727
3176.18	0.0343462
3185.83	0.0348787
3195.47	0.0351537
3205.11	0.0355638
3214.75	0.0361981
3224.4	0.0371771
3234.04	0.0369252
3243.68	0.0367027
3253.32	0.0375878
3262.97	0.0376792
3272.61	0.038349
3282.25	0.0393106
3291.89	0.040775
3301.53	0.0413414
3311.18	0.0424128
3320.82	0.0435547
3330.46	0.0447397
3340.1	0.0474823
3349.75	0.0485324
3359.39	0.0503681
3369.03	0.0518947
3378.67	0.0522104
3388.32	0.0537451
3397.96	0.0547489
3407.6	0.0548656
3417.24	0.0529111
3426.89	0.0500268
3436.53	0.0458976
3446.17	0.042211
3455.81	0.039268
3465.45	0.0372688
3475.1	0.0374006
3484.74	0.0379595
3494.38	0.0402224
3504.02	0.0443885
3513.67	0.0461569
3523.31	0.0447178
3532.95	0.0394587
3542.59	0.0346295
3552.24	0.0336402
3561.88	0.0311361
3571.52	0.029049
3581.16	0.0259458
3590.8	0.0240547
3600.45	0.0250664
3610.09	0.0256581
3619.73	0.0302485
3629.37	0.0287764
3639.02	0.0218096
3648.66	0.0188747
3658.3	0.0172911
3667.94	0.0175752
3677.59	0.0175028
3687.23	0.0177155
3696.87	0.0178471
3706.51	0.018087
3716.16	0.0180405
3725.8	0.0174869
3735.44	0.0190161
3745.08	0.0190057
3754.72	0.0182404
3764.37	0.0183154
3774.01	0.0185359
3783.65	0.0184144
3793.29	0.018589
3802.94	0.0187668
3812.58	0.0187769
3822.22	0.0189399
3831.86	0.0196966
3841.51	0.0194513
3851.15	0.018379
3860.79	0.0191324
3870.43	0.0189336
3880.07	0.0192305
3889.72	0.0192369
3899.36	0.0189918
3909	0.0189083
3918.64	0.0187018
3928.29	0.0192539
3937.93	0.0196156
3947.57	0.0201462
3957.21	0.0185515
3966.86	0.020047
3976.5	0.0194014
3986.14	0.0198255
3995.78	0.0192732
