Measurement: Infrared, Infrared Data Processed
Mineral: Hubnerite
Rruff sample: R050139
Ideal chemistry: Mn^2+^W^6+^O_4_
Locality: Pasto Bueno District, Pallasca Province, Ancash Department, Peru
Source: Dave Bunk Minerals
Description: Black tabular crystals associated with quartz
Measured chemistry: (Mn^2+^_0.79_Fe^2+^_0.20_)W_1.00_O4
x	intensity
399.193	0.149747
408.835	0.175167
418.477	0.181577
428.12	0.165108
437.762	0.185512
447.404	0.215013
457.047	0.224796
466.689	0.210217
476.331	0.211592
485.974	0.228058
495.616	0.239582
505.258	0.24109
514.901	0.232586
524.543	0.219499
534.185	0.209465
543.828	0.211258
553.47	0.218117
563.112	0.229632
572.755	0.240346
582.397	0.247361
592.039	0.251061
601.682	0.252136
611.324	0.249903
620.966	0.245911
630.609	0.239728
640.251	0.232884
649.893	0.224796
659.536	0.21603
669.178	0.206528
678.82	0.196642
688.463	0.186423
698.105	0.177078
707.747	0.165746
717.39	0.152724
727.032	0.137809
736.674	0.120815
746.317	0.10809
755.959	0.11052
765.601	0.122752
775.244	0.135101
784.886	0.145625
794.528	0.153017
804.171	0.156582
813.813	0.155649
823.455	0.151597
833.098	0.143854
842.74	0.13351
852.382	0.122087
862.025	0.107883
871.667	0.0880756
881.309	0.0618372
890.952	0.03009
900.594	0.00988798
910.236	0.00509484
919.879	0.00342808
929.521	0.00314095
939.163	0.00133658
948.806	0.000232317
958.448	-0.000423685
968.09	-0.000924688
977.733	-0.00101295
987.375	-0.000954904
997.017	-0.000957497
1006.66	-0.00183731
1016.3	-0.00204541
1025.94	-0.00253297
1035.59	-0.0023829
1045.23	-0.0020354
1054.87	-0.00209061
1064.51	-0.00221451
1074.16	-0.00220107
1083.8	-0.0019439
1093.44	-0.001753
1103.08	-0.00162883
1112.72	-0.00151483
1122.37	-0.0013413
1132.01	-0.00110977
1141.65	-0.000862703
1151.3	-0.000717983
1160.94	-0.00072366
1170.58	-0.0010354
1180.22	-0.00144974
1189.86	-0.00196027
1199.51	-0.00229095
1209.15	-0.00291902
1218.79	-0.00283965
1228.43	-0.00265924
1238.08	-0.00272375
1247.72	-0.0024449
1257.36	-0.00242614
1267	-0.00216144
1276.64	-0.00196032
1286.29	-0.00156697
1295.93	-0.00149874
1305.57	-0.00130445
1315.21	-0.000911586
1324.86	-0.0011493
1334.5	-0.000937913
1344.14	-0.000959609
1353.78	-0.000813708
1363.43	-0.000971019
1373.07	-0.000839748
1382.71	-0.00108744
1392.35	-0.000884116
1401.99	-0.000681356
1411.64	-0.000297628
1421.28	-0.000373796
1430.92	-0.000195667
1440.57	-0.000182584
1450.21	-0.000139914
1459.85	-0.000130057
1469.49	-0.000536196
1479.13	-0.00140658
1488.78	-0.00131442
1498.42	-0.00108354
1508.06	-0.000967875
1517.7	-0.000374071
1527.35	1.85967e-05
1536.99	0.000499912
1546.63	0.00146005
1556.27	0.00161839
1565.91	0.00238643
1575.56	0.00200189
1585.2	0.00230686
1594.84	0.00276566
1604.48	0.00273103
1614.13	0.00312217
1623.77	0.00329096
1633.41	0.00385681
1643.05	0.00419454
1652.7	0.00285594
1662.34	0.00286853
1671.98	0.00235972
1681.62	0.00187177
1691.27	0.00176272
1700.91	0.00111122
1710.55	0.00172955
1720.19	0.00152053
1729.84	0.00139489
1739.48	0.00125349
1749.12	0.000963904
1758.76	0.000258192
1768.4	0.000410519
1778.05	3.98457e-05
1787.69	0.000237554
1797.33	0.000387579
1806.97	-0.000124462
1816.62	-0.000110962
1826.26	-8.07494e-05
1835.9	0.000350736
1845.54	0.000153258
1855.18	0.00081937
1864.83	0.000628695
1874.47	0.000186793
1884.11	0.000688471
1893.75	-0.000125423
1903.4	0.000241064
1913.04	0.000244543
1922.68	8.6531e-05
1932.32	0.000292651
1941.97	0.000498943
1951.61	-0.000647038
1961.25	-8.24928e-05
1970.89	-0.00282985
1980.54	0.00211459
1990.18	-0.00146818
1999.82	0.000222474
2009.46	-0.00122392
2019.11	0.00112924
2028.75	-0.0028426
2038.39	-0.000920996
2048.03	0.00164095
2057.67	-0.00070861
2067.32	0.000682935
2076.96	6.90669e-05
2086.6	-0.000594228
2096.24	-0.000840917
2105.89	0.000109807
2115.53	-0.000227824
2125.17	-0.00138161
2134.81	-0.00171252
2144.45	-0.00148006
2154.1	-0.00223684
2163.74	-0.000815496
2173.38	0.000139683
2183.02	8.98689e-05
2192.67	0.00087066
2202.31	0.000189051
2211.95	-0.00159
2221.59	-0.00075613
2231.24	-0.0011884
2240.88	-0.000506565
2250.52	-0.00112158
2260.16	-0.00152904
2269.8	7.68155e-05
2279.45	-0.000359803
2289.09	8.34316e-05
2298.73	-0.000753447
2308.38	-0.00136156
2318.02	-0.000386506
2327.66	-0.000751942
2337.3	-0.000860527
2346.94	-0.00136864
2356.59	-0.000594005
2366.23	-0.000838056
2375.87	-0.0018609
2385.51	-0.00265144
2395.16	-0.00106816
2404.8	-0.00179383
2414.44	-0.000993848
2424.08	-0.000606716
2433.72	-0.000445262
2443.37	-0.0012321
2453.01	-0.000813037
2462.65	-0.00041692
2472.29	0.000137091
2481.94	-0.000440866
2491.58	-0.000666559
2501.22	-0.000303999
2510.86	-0.000826612
2520.51	-3.65078e-05
2530.15	0.000293478
2539.79	0.000326738
2549.43	-0.000597238
2559.07	6.88881e-05
2568.72	-0.000136316
2578.36	0.00019367
2588	-0.000284836
2597.64	0.000415206
2607.29	0.00065574
2616.93	0.000676751
2626.57	0.000472322
2636.21	0.000420645
2645.86	0.000565916
2655.5	0.00077647
2665.14	0.000476748
2674.78	0.000423312
2684.43	0.000617266
2694.07	0.00111917
2703.71	0.000819504
2713.35	0.000771195
2722.99	0.00102587
2732.64	0.00107488
2742.28	0.00127235
2751.92	0.00142033
2761.56	0.00172417
2771.21	0.00161466
2780.85	0.00201456
2790.49	0.00189325
2800.13	0.00261144
2809.78	0.00204506
2819.42	0.00244232
2829.06	0.00344512
2838.7	0.00421196
2848.34	0.00595087
2857.99	0.00565533
2867.63	0.00500669
2877.27	0.00381434
2886.91	0.00464448
2896.56	0.00539617
2906.2	0.00706935
2915.84	0.0088025
2925.48	0.00917734
2935.13	0.00628741
2944.77	0.00366004
2954.41	0.0040478
2964.05	0.00233123
2973.7	0.000980184
2983.34	0.00104195
2992.98	0.00143866
3002.62	0.00140514
3012.26	0.00115252
3021.91	0.00215593
3031.55	0.0015026
3041.19	0.00214784
3050.83	0.00300583
3060.48	0.00234164
3070.12	0.00257371
3079.76	0.00244662
3089.4	0.00273809
3099.05	0.00346124
3108.69	0.00356154
3118.33	0.00355686
3127.97	0.00367999
3137.61	0.00426733
3147.26	0.00402731
3156.9	0.00426357
3166.54	0.00489996
3176.18	0.00511604
3185.83	0.00481644
3195.47	0.00525104
3205.11	0.00464116
3214.75	0.00549927
3224.4	0.0053862
3234.04	0.0065321
3243.68	0.00674777
3253.32	0.00558838
3262.97	0.00649446
3272.61	0.00597617
3282.25	0.00606968
3291.89	0.00558619
3301.53	0.00714636
3311.18	0.00611131
3320.82	0.00638112
3330.46	0.00648697
3340.1	0.00650012
3349.75	0.00646321
3359.39	0.00659093
3369.03	0.00528218
3378.67	0.00564931
3388.32	0.00614819
3397.96	0.00492778
3407.6	0.00673602
3417.24	0.00651641
3426.89	0.00561105
3436.53	0.00529367
3446.17	0.0046853
3455.81	0.00655712
3465.45	0.00555061
3475.1	0.00595085
3484.74	0.00470824
3494.38	0.00353096
3504.02	0.0041486
3513.67	0.00321273
3523.31	0.00318623
3532.95	0.00295426
3542.59	0.0036002
3552.24	0.00238004
3561.88	0.000817791
3571.52	0.00210789
3581.16	0.0023206
3590.8	0.00150003
3600.45	0.000575125
3610.09	0.0011425
3619.73	-0.00095205
3629.37	-0.00129907
3639.02	0.00028947
3648.66	-0.00206581
3658.3	-0.00015606
3667.94	-0.00165906
3677.59	-0.000626579
3687.23	-0.00117573
3696.87	-0.000892863
3706.51	-0.00129588
3716.16	-0.000763848
3725.8	-0.00230561
3735.44	-0.00158352
3745.08	-0.00347847
3754.72	-0.0039728
3764.37	-0.00250184
3774.01	-0.00522806
3783.65	-0.00452498
3793.29	-0.00372995
3802.94	-0.0040469
3812.58	-0.00238162
3822.22	-0.00279783
3831.86	-0.00396007
3841.51	-0.00305112
3851.15	-0.00446546
3860.79	-0.00412107
3870.43	-0.00403814
3880.07	-0.00327407
3889.72	-0.00236322
3899.36	-0.00362578
3909	-0.00373851
3918.64	-0.00223035
3928.29	-0.00317983
3937.93	-0.0019412
3947.57	-0.00196995
3957.21	-0.00122347
3966.86	-0.00156416
3976.5	-0.0006136
3986.14	-0.00125092
3995.78	0.000185445
