Measurement: Infrared, Infrared Data Processed
Mineral: Hubnerite
Rruff sample: R050069
Ideal chemistry: Mn^2+^W^6+^O_4_
Locality: Yaogangxian, Yizhang County, Hunan Province, China
Source: Rock Currier
Description: Black colored prismatic single crystal
Measured chemistry: (Mn_0.68_Fe_0.32_)W_1.00_O_4_
x	intensity
374.123	0.136882
383.765	0.172481
393.407	0.218571
403.05	0.262624
412.692	0.293795
422.334	0.279512
431.976	0.272005
441.619	0.321733
451.261	0.359566
460.904	0.349685
470.546	0.337849
480.188	0.361631
489.83	0.392761
499.473	0.399273
509.115	0.386834
518.758	0.36455
528.4	0.342071
538.042	0.335147
547.684	0.346374
557.327	0.365526
566.969	0.385173
576.611	0.400341
586.254	0.405912
595.896	0.404452
605.538	0.396187
615.181	0.385476
624.823	0.373096
634.466	0.357757
644.108	0.341739
653.75	0.325742
663.393	0.310365
673.035	0.292943
682.677	0.276425
692.319	0.261577
701.962	0.245209
711.604	0.224922
721.246	0.202088
730.889	0.178588
740.531	0.158258
750.173	0.153029
759.816	0.171458
769.458	0.198488
779.101	0.224291
788.743	0.245574
798.385	0.256975
808.028	0.258427
817.67	0.249887
827.312	0.233994
836.955	0.214326
846.597	0.195153
856.239	0.179292
865.881	0.157011
875.524	0.122772
885.166	0.0784796
894.808	0.038806
904.451	0.0244191
914.093	0.021709
923.736	0.020217
933.378	0.0192442
943.02	0.0175415
952.663	0.0166179
962.305	0.015566
971.947	0.0149424
981.59	0.0144712
991.232	0.0142736
1000.87	0.014484
1010.52	0.0144863
1020.16	0.0150485
1029.8	0.0156259
1039.44	0.0160962
1049.09	0.0169535
1058.73	0.0174897
1068.37	0.0182062
1078.01	0.0192018
1087.65	0.0200742
1097.3	0.0211428
1106.94	0.0225731
1116.58	0.0238639
1126.22	0.0251504
1135.87	0.0267086
1145.51	0.0282333
1155.15	0.0294623
1164.79	0.0306906
1174.44	0.0317968
1184.08	0.03259
1193.72	0.0336105
1203.36	0.0345191
1213.01	0.0356593
1222.65	0.0370631
1232.29	0.038534
1241.93	0.0399718
1251.58	0.0417684
1261.22	0.0433861
1270.86	0.0456091
1280.5	0.0475072
1290.14	0.0485395
1299.79	0.0500239
1309.43	0.0517185
1319.07	0.0531187
1328.71	0.0545564
1338.36	0.0560652
1348	0.0575192
1357.64	0.0586473
1367.28	0.0601461
1376.92	0.0619554
1386.57	0.0628402
1396.21	0.0646651
1405.85	0.0665441
1415.49	0.0678192
1425.14	0.0691184
1434.78	0.0705711
1444.42	0.0718227
1454.06	0.0732477
1463.71	0.0746024
1473.35	0.0747388
1482.99	0.0757649
1492.63	0.0772821
1502.28	0.0792172
1511.92	0.080848
1521.56	0.0827382
1531.2	0.0848206
1540.85	0.0870245
1550.49	0.0889179
1560.13	0.0906641
1569.77	0.0923122
1579.41	0.0938353
1589.06	0.0952022
1598.7	0.0966533
1608.34	0.0980086
1617.98	0.0996681
1627.63	0.101243
1637.27	0.102601
1646.91	0.10336
1656.55	0.103565
1666.19	0.103992
1675.84	0.104599
1685.48	0.105605
1695.12	0.106574
1704.77	0.107926
1714.41	0.108993
1724.05	0.110038
1733.69	0.111142
1743.33	0.111293
1752.98	0.111815
1762.62	0.112612
1772.26	0.113513
1781.9	0.113912
1791.55	0.11532
1801.19	0.116325
1810.83	0.117719
1820.47	0.119171
1830.12	0.120548
1839.76	0.121715
1849.4	0.1231
1859.04	0.124565
1868.68	0.125779
1878.33	0.127081
1887.97	0.128195
1897.61	0.129932
1907.25	0.130567
1916.9	0.132598
1926.54	0.133858
1936.18	0.134587
1945.82	0.136286
1955.46	0.136348
1965.11	0.138244
1974.75	0.139313
1984.39	0.142253
1994.04	0.142719
2003.68	0.140811
2013.32	0.144801
2022.96	0.144466
2032.6	0.147373
2042.25	0.149978
2051.89	0.15093
2061.53	0.150854
2071.17	0.151195
2080.82	0.15367
2090.46	0.153804
2100.1	0.154797
2109.74	0.155682
2119.39	0.156651
2129.03	0.155914
2138.67	0.157059
2148.31	0.157787
2157.95	0.158915
2167.6	0.163446
2177.24	0.162817
2186.88	0.165197
2196.52	0.166011
2206.17	0.166277
2215.81	0.16721
2225.45	0.168452
2235.09	0.16919
2244.74	0.169839
2254.38	0.170372
2264.02	0.1719
2273.66	0.172455
2283.3	0.1751
2292.95	0.175427
2302.59	0.175713
2312.23	0.176939
2321.87	0.1782
2331.52	0.178065
2341.16	0.178838
2350.8	0.178926
2360.44	0.180603
2370.09	0.18109
2379.73	0.181381
2389.37	0.181793
2399.01	0.183254
2408.66	0.184756
2418.3	0.184671
2427.94	0.18585
2437.58	0.187249
2447.22	0.187598
2456.87	0.188948
2466.51	0.189696
2476.15	0.190463
2485.79	0.19096
2495.44	0.192183
2505.08	0.193366
2514.72	0.194252
2524.36	0.194952
2534.01	0.195747
2543.65	0.196723
2553.29	0.197618
2562.93	0.198748
2572.57	0.200281
2582.22	0.200888
2591.86	0.202261
2601.5	0.20263
2611.14	0.203869
2620.79	0.20433
2630.43	0.205579
2640.07	0.205958
2649.71	0.206817
2659.36	0.207096
2669	0.207946
2678.64	0.208037
2688.28	0.209554
2697.93	0.210676
2707.57	0.211113
2717.21	0.212355
2726.85	0.213385
2736.49	0.21402
2746.14	0.215226
2755.78	0.216002
2765.42	0.216774
2775.06	0.217783
2784.71	0.218807
2794.35	0.219632
2803.99	0.22072
2813.63	0.222219
2823.28	0.223021
2832.92	0.224942
2842.56	0.226615
2852.2	0.229012
2861.84	0.228417
2871.49	0.229263
2881.13	0.230152
2890.77	0.231016
2900.41	0.233243
2910.06	0.235548
2919.7	0.238158
2929.34	0.237898
2938.98	0.235
2948.62	0.235705
2958.27	0.237203
2967.91	0.235316
2977.55	0.234981
2987.2	0.235355
2996.84	0.236537
3006.48	0.237492
3016.12	0.238767
3025.76	0.23927
3035.41	0.240406
3045.05	0.241192
3054.69	0.242829
3064.33	0.243656
3073.98	0.244307
3083.62	0.245888
3093.26	0.245993
3102.9	0.247459
3112.55	0.24859
3122.19	0.249176
3131.83	0.250348
3141.47	0.250918
3151.11	0.251731
3160.76	0.252615
3170.4	0.254203
3180.04	0.254423
3189.68	0.255556
3199.33	0.256503
3208.97	0.257694
3218.61	0.258467
3228.25	0.25893
3237.9	0.259593
3247.54	0.26039
3257.18	0.261698
3266.82	0.262465
3276.47	0.262979
3286.11	0.263569
3295.75	0.264521
3305.39	0.265416
3315.03	0.265178
3324.68	0.266767
3334.32	0.26724
3343.96	0.267587
3353.6	0.268427
3363.25	0.268285
3372.89	0.269137
3382.53	0.27083
3392.17	0.269693
3401.82	0.271074
3411.46	0.271476
3421.1	0.27192
3430.74	0.272413
3440.39	0.272938
3450.03	0.272542
3459.67	0.27318
3469.31	0.273405
3478.95	0.272928
3488.6	0.273645
3498.24	0.27258
3507.88	0.272625
3517.52	0.273392
3527.17	0.271993
3536.81	0.271887
3546.45	0.271599
3556.09	0.272845
3565.74	0.272036
3575.38	0.271829
3585.02	0.271625
3594.66	0.273302
3604.3	0.271935
3613.95	0.27304
3623.59	0.273447
3633.23	0.274201
3642.87	0.274313
3652.52	0.275554
3662.16	0.275491
3671.8	0.276616
3681.44	0.276277
3691.09	0.277976
3700.73	0.278578
3710.37	0.278699
3720.01	0.279219
3729.66	0.280713
3739.3	0.281579
3748.94	0.28132
3758.58	0.282469
3768.22	0.283039
3777.87	0.283458
3787.51	0.284197
3797.15	0.285163
3806.79	0.286077
3816.44	0.286079
3826.08	0.28699
3835.72	0.287731
3845.36	0.288601
3855.01	0.288996
3864.65	0.289766
3874.29	0.289812
3883.93	0.28983
3893.57	0.291271
3903.22	0.291128
3912.86	0.29262
3922.5	0.292237
3932.14	0.29457
3941.79	0.292986
3951.43	0.294182
3961.07	0.295161
3970.71	0.29519
3980.36	0.297117
3990	0.296111
3999.64	0.296895
