Measurement: Infrared, Infrared Data Processed
Mineral: Hubnerite
Rruff sample: R050556
Ideal chemistry: Mn^2+^W^6+^O_4_
Locality: Pasto Bueno, Ancash Department, Peru
Source: Dave Bunk Minerals
Description: Blackish brown bladed crystal associated with quartz
Measured chemistry: Mn^2+^_0.98_W_1.00_O_4_
x	intensity
399.193	0.135521
408.835	0.183842
418.477	0.184756
428.12	0.159851
437.762	0.181896
447.404	0.21614
457.047	0.222078
466.689	0.200542
476.331	0.209578
485.974	0.234051
495.616	0.25472
505.258	0.255578
514.901	0.245528
524.543	0.223268
534.185	0.214459
543.828	0.226934
553.47	0.242208
563.112	0.258064
572.755	0.272479
582.397	0.279314
592.039	0.280743
601.682	0.27919
611.324	0.275145
620.966	0.268201
630.609	0.259957
640.251	0.251019
649.893	0.24091
659.536	0.232727
669.178	0.222473
678.82	0.211614
688.463	0.19959
698.105	0.18937
707.747	0.176376
717.39	0.16055
727.032	0.142917
736.674	0.123643
746.317	0.10885
755.959	0.115241
765.601	0.133918
775.244	0.153111
784.886	0.170528
794.528	0.183344
804.171	0.189149
813.813	0.188196
823.455	0.181122
833.098	0.169776
842.74	0.157573
852.382	0.145001
862.025	0.130239
871.667	0.108606
881.309	0.0781512
890.952	0.0405022
900.594	0.0180897
910.236	0.0140424
919.879	0.0122446
929.521	0.0123485
939.163	0.010897
948.806	0.00957224
958.448	0.00952231
968.09	0.00900032
977.733	0.00997806
987.375	0.0101366
997.017	0.0107133
1006.66	0.0108792
1016.3	0.0111627
1025.94	0.0112768
1035.59	0.0117705
1045.23	0.0122428
1054.87	0.0134265
1064.51	0.0138782
1074.16	0.014692
1083.8	0.0159131
1093.44	0.0163787
1103.08	0.0169659
1112.72	0.0178034
1122.37	0.0189746
1132.01	0.0206252
1141.65	0.0219531
1151.3	0.022994
1160.94	0.0235276
1170.58	0.0252439
1180.22	0.026095
1189.86	0.0272172
1199.51	0.0285464
1209.15	0.0293994
1218.79	0.0306635
1228.43	0.0320218
1238.08	0.0335314
1247.72	0.0346161
1257.36	0.0359849
1267	0.0372428
1276.64	0.0390519
1286.29	0.0406543
1295.93	0.0417334
1305.57	0.0435498
1315.21	0.044873
1324.86	0.0461089
1334.5	0.0472157
1344.14	0.0480861
1353.78	0.0476178
1363.43	0.047542
1373.07	0.0490966
1382.71	0.0509566
1392.35	0.0530974
1401.99	0.0544245
1411.64	0.0560103
1421.28	0.0571585
1430.92	0.0580286
1440.57	0.0590195
1450.21	0.0598381
1459.85	0.0601461
1469.49	0.0615592
1479.13	0.0648917
1488.78	0.0668616
1498.42	0.0685098
1508.06	0.0703644
1517.7	0.0712465
1527.35	0.0722375
1536.99	0.0732597
1546.63	0.0741215
1556.27	0.0756772
1565.91	0.0767001
1575.56	0.0780738
1585.2	0.0786988
1594.84	0.0802951
1604.48	0.0808859
1614.13	0.0819629
1623.77	0.0835506
1633.41	0.0850051
1643.05	0.0858302
1652.7	0.0873205
1662.34	0.0872459
1671.98	0.0870828
1681.62	0.088402
1691.27	0.0900079
1700.91	0.0906802
1710.55	0.0910627
1720.19	0.0918574
1729.84	0.0912107
1739.48	0.0885142
1749.12	0.0902484
1758.76	0.0962797
1768.4	0.0980227
1778.05	0.0996439
1787.69	0.10028
1797.33	0.100919
1806.97	0.102174
1816.62	0.10332
1826.26	0.1047
1835.9	0.106683
1845.54	0.108231
1855.18	0.109329
1864.83	0.108707
1874.47	0.110848
1884.11	0.112134
1893.75	0.112212
1903.4	0.11342
1913.04	0.113304
1922.68	0.114409
1932.32	0.114494
1941.97	0.116154
1951.61	0.118334
1961.25	0.120745
1970.89	0.12423
1980.54	0.120939
1990.18	0.123844
1999.82	0.118401
2009.46	0.122514
2019.11	0.121407
2028.75	0.126413
2038.39	0.129995
2048.03	0.128478
2057.67	0.130227
2067.32	0.129366
2076.96	0.129601
2086.6	0.131205
2096.24	0.132923
2105.89	0.133973
2115.53	0.132318
2125.17	0.133046
2134.81	0.134248
2144.45	0.133224
2154.1	0.127955
2163.74	0.143754
2173.38	0.138298
2183.02	0.139636
2192.67	0.144586
2202.31	0.14251
2211.95	0.142185
2221.59	0.141249
2231.24	0.146401
2240.88	0.142999
2250.52	0.148029
2260.16	0.146667
2269.8	0.148275
2279.45	0.150617
2289.09	0.150436
2298.73	0.151729
2308.38	0.152099
2318.02	0.153332
2327.66	0.152238
2337.3	0.153065
2346.94	0.152528
2356.59	0.15387
2366.23	0.155548
2375.87	0.156136
2385.51	0.157399
2395.16	0.156602
2404.8	0.158112
2414.44	0.159426
2424.08	0.160781
2433.72	0.161327
2443.37	0.162478
2453.01	0.164062
2462.65	0.163274
2472.29	0.164715
2481.94	0.16603
2491.58	0.164175
2501.22	0.167495
2510.86	0.167854
2520.51	0.168255
2530.15	0.168572
2539.79	0.169305
2549.43	0.170367
2559.07	0.173477
2568.72	0.173261
2578.36	0.17312
2588	0.175248
2597.64	0.175535
2607.29	0.174668
2616.93	0.174881
2626.57	0.17726
2636.21	0.177357
2645.86	0.179839
2655.5	0.178387
2665.14	0.178609
2674.78	0.178202
2684.43	0.180879
2694.07	0.181464
2703.71	0.18128
2713.35	0.183134
2722.99	0.185203
2732.64	0.184509
2742.28	0.184126
2751.92	0.186068
2761.56	0.187708
2771.21	0.187199
2780.85	0.190248
2790.49	0.187713
2800.13	0.190955
2809.78	0.192002
2819.42	0.190893
2829.06	0.191917
2838.7	0.19308
2848.34	0.191721
2857.99	0.195698
2867.63	0.196491
2877.27	0.198387
2886.91	0.197071
2896.56	0.199554
2906.2	0.197899
2915.84	0.198497
2925.48	0.200877
2935.13	0.204325
2944.77	0.203129
2954.41	0.201824
2964.05	0.206822
2973.7	0.205412
2983.34	0.207635
2992.98	0.208253
3002.62	0.208124
3012.26	0.210367
3021.91	0.211311
3031.55	0.207988
3041.19	0.211928
3050.83	0.209358
3060.48	0.210599
3070.12	0.211407
3079.76	0.211275
3089.4	0.215412
3099.05	0.216169
3108.69	0.215277
3118.33	0.215824
3127.97	0.217523
3137.61	0.21846
3147.26	0.220029
3156.9	0.218587
3166.54	0.218241
3176.18	0.218105
3185.83	0.221304
3195.47	0.222215
3205.11	0.221532
3214.75	0.223933
3224.4	0.225822
3234.04	0.225025
3243.68	0.228361
3253.32	0.226536
3262.97	0.227088
3272.61	0.227366
3282.25	0.228218
3291.89	0.229455
3301.53	0.22993
3311.18	0.232729
3320.82	0.2345
3330.46	0.234954
3340.1	0.233388
3349.75	0.234379
3359.39	0.236568
3369.03	0.238365
3378.67	0.237175
3388.32	0.23723
3397.96	0.235218
3407.6	0.237863
3417.24	0.238833
3426.89	0.241098
3436.53	0.239294
3446.17	0.243199
3455.81	0.241536
3465.45	0.239748
3475.1	0.243236
3484.74	0.240972
3494.38	0.244069
3504.02	0.241564
3513.67	0.240662
3523.31	0.24063
3532.95	0.245451
3542.59	0.242738
3552.24	0.247498
3561.88	0.245848
3571.52	0.244552
3581.16	0.248272
3590.8	0.249243
3600.45	0.249238
3610.09	0.246967
3619.73	0.25336
3629.37	0.252852
3639.02	0.250222
3648.66	0.253561
3658.3	0.253753
3667.94	0.250907
3677.59	0.254251
3687.23	0.256123
3696.87	0.255766
3706.51	0.259928
3716.16	0.259579
3725.8	0.257349
3735.44	0.260136
3745.08	0.261157
3754.72	0.260527
3764.37	0.262597
3774.01	0.263815
3783.65	0.265041
3793.29	0.267725
3802.94	0.265532
3812.58	0.260168
3822.22	0.268586
3831.86	0.269432
3841.51	0.27301
3851.15	0.27362
3860.79	0.270473
3870.43	0.271756
3880.07	0.271899
3889.72	0.271791
3899.36	0.274113
3909	0.274586
3918.64	0.277813
3928.29	0.272825
3937.93	0.272955
3947.57	0.278043
3957.21	0.281224
3966.86	0.277996
3976.5	0.278127
3986.14	0.277205
3995.78	0.28554
