Measurement: Infrared, Infrared Data Processed
Mineral: Humite
Rruff sample: R050665
Ideal chemistry: Mg_7_(SiO_4_)_3_(F,OH)_2_
Locality: Tilly Foster mine, Brewster, Putnam County, New York, USA
Source: University of Arizona Mineral Museum
Description: Granular aggregate of reddish-orange crystals
Measured chemistry: (Mg_0.91_Fe^2+^_0.09_)_7_(Si_1.00_O_4_)_3_(F_0.56_(OH)_0.44_)_2_
x	intensity
399.193	0.233944
408.835	0.229519
418.477	0.211682
428.12	0.205059
437.762	0.195659
447.404	0.184462
457.047	0.167356
466.689	0.184438
476.331	0.19014
485.974	0.169579
495.616	0.136157
505.258	0.113325
514.901	0.1108
524.543	0.146425
534.185	0.151674
543.828	0.124698
553.47	0.10183
563.112	0.0758846
572.755	0.0612059
582.397	0.0609489
592.039	0.0827936
601.682	0.11836
611.324	0.122135
620.966	0.105217
630.609	0.079484
640.251	0.0566144
649.893	0.0422012
659.536	0.0360207
669.178	0.0327198
678.82	0.030358
688.463	0.0304424
698.105	0.0310871
707.747	0.0334828
717.39	0.0393825
727.032	0.0512323
736.674	0.0744846
746.317	0.0931982
755.959	0.0900242
765.601	0.079407
775.244	0.0572132
784.886	0.0452585
794.528	0.0524066
804.171	0.0719012
813.813	0.100951
823.455	0.139646
833.098	0.192262
842.74	0.248188
852.382	0.221719
862.025	0.258914
871.667	0.301006
881.309	0.342889
890.952	0.301628
900.594	0.248634
910.236	0.208487
919.879	0.176956
929.521	0.151248
939.163	0.169286
948.806	0.197249
958.448	0.190823
968.09	0.163484
977.733	0.144916
987.375	0.130992
997.017	0.121475
1006.66	0.109312
1016.3	0.0918734
1025.94	0.0724541
1035.59	0.0535093
1045.23	0.0367566
1054.87	0.0255269
1064.51	0.0200116
1074.16	0.0197746
1083.8	0.0186281
1093.44	0.0150972
1103.08	0.00952318
1112.72	0.00623442
1122.37	0.00515566
1132.01	0.00404976
1141.65	0.00357015
1151.3	0.00369898
1160.94	0.00389538
1170.58	0.004482
1180.22	0.00363958
1189.86	0.00369303
1199.51	0.00326169
1209.15	0.00345064
1218.79	0.00335389
1228.43	0.00255033
1238.08	0.00270357
1247.72	0.00294421
1257.36	0.00396276
1267	0.00515836
1276.64	0.00433362
1286.29	0.00376373
1295.93	0.00388054
1305.57	0.00329708
1315.21	0.00356123
1324.86	0.00315628
1334.5	0.00328638
1344.14	0.00308048
1353.78	0.00338058
1363.43	0.00381071
1373.07	0.00381094
1382.71	0.00432798
1392.35	0.00455483
1401.99	0.0047385
1411.64	0.00523264
1421.28	0.00518481
1430.92	0.00588482
1440.57	0.0055409
1450.21	0.00574374
1459.85	0.00564337
1469.49	0.00537818
1479.13	0.00603928
1488.78	0.00623067
1498.42	0.00662771
1508.06	0.0064769
1517.7	0.00662594
1527.35	0.00575941
1536.99	0.0059423
1546.63	0.00603291
1556.27	0.00568923
1565.91	0.00611249
1575.56	0.00558416
1585.2	0.00601465
1594.84	0.0058072
1604.48	0.00652456
1614.13	0.00635017
1623.77	0.00606018
1633.41	0.00525693
1643.05	0.00574801
1652.7	0.00546838
1662.34	0.00522788
1671.98	0.00563128
1681.62	0.00557129
1691.27	0.00605604
1700.91	0.0055839
1710.55	0.00627563
1720.19	0.00588904
1729.84	0.0063237
1739.48	0.00503171
1749.12	0.00507319
1758.76	0.00511766
1768.4	0.00575631
1778.05	0.00602891
1787.69	0.00671737
1797.33	0.00587574
1806.97	0.00609492
1816.62	0.00459553
1826.26	0.00499328
1835.9	0.00534523
1845.54	0.00622402
1855.18	0.00487244
1864.83	0.00526711
1874.47	0.00567139
1884.11	0.00552074
1893.75	0.00504884
1903.4	0.00505594
1913.04	0.00554627
1922.68	0.00500736
1932.32	0.00590904
1941.97	0.00154188
1951.61	0.00552377
1961.25	0.00333118
1970.89	0.000815208
1980.54	0.00573869
1990.18	0.00345725
1999.82	0.00627632
2009.46	0.0026224
2019.11	0.00967653
2028.75	0.00550008
2038.39	0.00808954
2048.03	0.00894572
2057.67	0.00981007
2067.32	0.00763431
2076.96	0.0125136
2086.6	0.00858719
2096.24	0.00975692
2105.89	0.00965378
2115.53	0.0111403
2125.17	0.011173
2134.81	0.00692069
2144.45	0.0115787
2154.1	0.011108
2163.74	0.0144147
2173.38	0.00973888
2183.02	0.0127096
2192.67	0.0135512
2202.31	0.0133453
2211.95	0.0104513
2221.59	0.00981206
2231.24	0.0125367
2240.88	0.0123929
2250.52	0.0152702
2260.16	0.0128439
2269.8	0.0120668
2279.45	0.0151803
2289.09	0.0146249
2298.73	0.0135494
2308.38	0.0137407
2318.02	0.0134133
2327.66	0.0132482
2337.3	0.0124249
2346.94	0.012449
2356.59	0.0123767
2366.23	0.0124186
2375.87	0.0126989
2385.51	0.0129166
2395.16	0.011395
2404.8	0.0114517
2414.44	0.0128928
2424.08	0.0149561
2433.72	0.014281
2443.37	0.0138113
2453.01	0.0133654
2462.65	0.0139808
2472.29	0.0141321
2481.94	0.0133283
2491.58	0.0157873
2501.22	0.0153157
2510.86	0.0141435
2520.51	0.0150504
2530.15	0.0126365
2539.79	0.0160421
2549.43	0.0152363
2559.07	0.0164837
2568.72	0.0160125
2578.36	0.016041
2588	0.015774
2597.64	0.0167967
2607.29	0.0177939
2616.93	0.0163702
2626.57	0.017981
2636.21	0.0176116
2645.86	0.0172386
2655.5	0.0177912
2665.14	0.016685
2674.78	0.0172401
2684.43	0.017837
2694.07	0.0172852
2703.71	0.0167262
2713.35	0.017149
2722.99	0.0166767
2732.64	0.0177396
2742.28	0.0179168
2751.92	0.0182936
2761.56	0.0178601
2771.21	0.0195976
2780.85	0.0188271
2790.49	0.0193133
2800.13	0.0189338
2809.78	0.0197842
2819.42	0.0194837
2829.06	0.0197945
2838.7	0.020071
2848.34	0.0179278
2857.99	0.0173887
2867.63	0.0205408
2877.27	0.0199637
2886.91	0.0186902
2896.56	0.0200701
2906.2	0.0208412
2915.84	0.0187804
2925.48	0.0183077
2935.13	0.0217246
2944.77	0.020583
2954.41	0.0225719
2964.05	0.0235868
2973.7	0.0236409
2983.34	0.0224899
2992.98	0.0227314
3002.62	0.0230448
3012.26	0.02268
3021.91	0.024293
3031.55	0.0238518
3041.19	0.0233475
3050.83	0.0251175
3060.48	0.0243824
3070.12	0.0251984
3079.76	0.0265776
3089.4	0.0242126
3099.05	0.0252527
3108.69	0.0258183
3118.33	0.0246327
3127.97	0.0254433
3137.61	0.027318
3147.26	0.0246277
3156.9	0.0268701
3166.54	0.026643
3176.18	0.027789
3185.83	0.0281366
3195.47	0.0278971
3205.11	0.0296017
3214.75	0.0290447
3224.4	0.028512
3234.04	0.0299642
3243.68	0.0274687
3253.32	0.0266513
3262.97	0.0293723
3272.61	0.0275375
3282.25	0.0286421
3291.89	0.0275727
3301.53	0.0306877
3311.18	0.0266104
3320.82	0.0320733
3330.46	0.0291369
3340.1	0.0323854
3349.75	0.0298924
3359.39	0.0323597
3369.03	0.0291985
3378.67	0.0320327
3388.32	0.0307296
3397.96	0.0312117
3407.6	0.0307761
3417.24	0.0329664
3426.89	0.0308839
3436.53	0.0313372
3446.17	0.0286547
3455.81	0.0296657
3465.45	0.0293028
3475.1	0.0307802
3484.74	0.0350167
3494.38	0.0319155
3504.02	0.0316524
3513.67	0.031869
3523.31	0.0319012
3532.95	0.0354614
3542.59	0.0399397
3552.24	0.0511922
3561.88	0.0591667
3571.52	0.0465682
3581.16	0.0311531
3590.8	0.0289956
3600.45	0.0291616
3610.09	0.0311256
3619.73	0.0278762
3629.37	0.0340206
3639.02	0.0330066
3648.66	0.0314739
3658.3	0.0367244
3667.94	0.0380778
3677.59	0.0355416
3687.23	0.0482309
3696.87	0.0390327
3706.51	0.0316667
3716.16	0.0257191
3725.8	0.0290505
3735.44	0.0289649
3745.08	0.0312142
3754.72	0.0261329
3764.37	0.0284514
3774.01	0.0269064
3783.65	0.0265377
3793.29	0.0270647
3802.94	0.0263318
3812.58	0.0260708
3822.22	0.0278666
3831.86	0.0263524
3841.51	0.0286241
3851.15	0.0229125
3860.79	0.0264881
3870.43	0.0282897
3880.07	0.0282145
3889.72	0.025673
3899.36	0.0262987
3909	0.0280727
3918.64	0.028518
3928.29	0.0277275
3937.93	0.0310606
3947.57	0.0290956
3957.21	0.0295096
3966.86	0.0295686
3976.5	0.0239179
3986.14	0.0264458
3995.78	0.0321387
