Measurement: Infrared, Infrared Data Processed
Mineral: Hydroxylapatite
Rruff sample: R050512
Ideal chemistry: Ca_5_(P^5+^O_4_)_3_OH
Locality: Moneta Island, Mayeguez, Puerto Rico, USA
Source: American Museum of Natural History
Description: Pale pink consolidated powder
Measured chemistry: Ca_5.00_(PO_4_)_3_((OH)_0.67_F_0.33_)
x	intensity
399.193	0.0832983
408.835	0.0666472
418.477	0.0677857
428.12	0.0707097
437.762	0.0725499
447.404	0.0702496
457.047	0.0772141
466.689	0.0860922
476.331	0.0878409
485.974	0.0790475
495.616	0.0851182
505.258	0.0991184
514.901	0.124018
524.543	0.167427
534.185	0.229874
543.828	0.323084
553.47	0.445267
563.112	0.505444
572.755	0.344954
582.397	0.213282
592.039	0.216558
601.682	0.311096
611.324	0.156909
620.966	0.112969
630.609	0.10894
640.251	0.0917994
649.893	0.0695611
659.536	0.056896
669.178	0.0507919
678.82	0.0474396
688.463	0.0448149
698.105	0.0423498
707.747	0.040828
717.39	0.0403129
727.032	0.0390999
736.674	0.038261
746.317	0.0380396
755.959	0.0373126
765.601	0.0373297
775.244	0.0365561
784.886	0.0370598
794.528	0.0378749
804.171	0.0390271
813.813	0.0401743
823.455	0.0420853
833.098	0.0444673
842.74	0.0504055
852.382	0.0595553
862.025	0.0707337
871.667	0.077153
881.309	0.0693607
890.952	0.0618064
900.594	0.0624553
910.236	0.0650173
919.879	0.0705628
929.521	0.0814077
939.163	0.101627
948.806	0.139487
958.448	0.202419
968.09	0.182166
977.733	0.242642
987.375	0.356798
997.017	0.473684
1006.66	0.566855
1016.3	0.630685
1025.94	0.611078
1035.59	0.491404
1045.23	0.387989
1054.87	0.310603
1064.51	0.253062
1074.16	0.207235
1083.8	0.187008
1093.44	0.165023
1103.08	0.127993
1112.72	0.0914061
1122.37	0.0644878
1132.01	0.0516243
1141.65	0.0463348
1151.3	0.0360774
1160.94	0.0276654
1170.58	0.0217777
1180.22	0.0185462
1189.86	0.0171668
1199.51	0.0157422
1209.15	0.0152232
1218.79	0.0139533
1228.43	0.0126957
1238.08	0.0107589
1247.72	0.00941541
1257.36	0.00878529
1267	0.00801011
1276.64	0.00769432
1286.29	0.00733464
1295.93	0.00726291
1305.57	0.00729643
1315.21	0.00737791
1324.86	0.0073342
1334.5	0.00723605
1344.14	0.00719536
1353.78	0.00747792
1363.43	0.00852762
1373.07	0.00931722
1382.71	0.0110158
1392.35	0.0138241
1401.99	0.0182781
1411.64	0.0220371
1421.28	0.0233555
1430.92	0.0210839
1440.57	0.0203996
1450.21	0.0230805
1459.85	0.021869
1469.49	0.0185824
1479.13	0.0157455
1488.78	0.0142661
1498.42	0.0131883
1508.06	0.0117336
1517.7	0.0107171
1527.35	0.0101215
1536.99	0.010263
1546.63	0.0112174
1556.27	0.011138
1565.91	0.0115597
1575.56	0.0113276
1585.2	0.0111546
1594.84	0.0111012
1604.48	0.0104682
1614.13	0.0106261
1623.77	0.0104442
1633.41	0.0102686
1643.05	0.0103943
1652.7	0.0102226
1662.34	0.00977407
1671.98	0.00893252
1681.62	0.00786346
1691.27	0.00709848
1700.91	0.0062062
1710.55	0.00550826
1720.19	0.00521481
1729.84	0.00451621
1739.48	0.00303062
1749.12	0.00260814
1758.76	0.00380437
1768.4	0.00390148
1778.05	0.00367389
1787.69	0.00375029
1797.33	0.0037576
1806.97	0.00363493
1816.62	0.00322512
1826.26	0.00388556
1835.9	0.00330197
1845.54	0.003607
1855.18	0.00320522
1864.83	0.00267241
1874.47	0.00312569
1884.11	0.00304353
1893.75	0.00268325
1903.4	0.00219893
1913.04	0.00213669
1922.68	0.000610626
1932.32	0.00251022
1941.97	0.000505688
1951.61	0.000303946
1961.25	-0.000854216
1970.89	-0.000653905
1980.54	0.000254511
1990.18	0.00107421
1999.82	-0.00157663
2009.46	-0.000163618
2019.11	-0.00214381
2028.75	-0.00131839
2038.39	-0.00215789
2048.03	3.81043e-06
2057.67	9.3912e-05
2067.32	0.000399747
2076.96	0.00104046
2086.6	0.00222894
2096.24	0.00133207
2105.89	0.00270939
2115.53	0.00202879
2125.17	0.000834188
2134.81	-0.000442942
2144.45	-0.000429172
2154.1	-0.0025792
2163.74	0.00120055
2173.38	0.00295005
2183.02	0.000402201
2192.67	0.00178245
2202.31	0.00274153
2211.95	0.00176209
2221.59	0.00251022
2231.24	0.00283594
2240.88	0.00357028
2250.52	0.00279552
2260.16	0.00335549
2269.8	0.00421278
2279.45	0.00512119
2289.09	0.00485567
2298.73	0.00493864
2308.38	0.00504898
2318.02	0.0054636
2327.66	0.00494856
2337.3	0.00530583
2346.94	0.00487242
2356.59	0.00483024
2366.23	0.0045437
2375.87	0.00430142
2385.51	0.00452589
2395.16	0.00402075
2404.8	0.00405968
2414.44	0.00407998
2424.08	0.00498036
2433.72	0.00435302
2443.37	0.00469493
2453.01	0.00483767
2462.65	0.00475278
2472.29	0.00429362
2481.94	0.00533085
2491.58	0.00475027
2501.22	0.00466167
2510.86	0.00415471
2520.51	0.00475523
2530.15	0.00468937
2539.79	0.00452793
2549.43	0.00508552
2559.07	0.00513215
2568.72	0.00473278
2578.36	0.00530948
2588	0.00486404
2597.64	0.00533944
2607.29	0.00494182
2616.93	0.00562882
2626.57	0.00516742
2636.21	0.00575887
2645.86	0.00563731
2655.5	0.00563738
2665.14	0.00523151
2674.78	0.00590314
2684.43	0.00594879
2694.07	0.0054845
2703.71	0.00584178
2713.35	0.00626392
2722.99	0.00633623
2732.64	0.00617784
2742.28	0.00613344
2751.92	0.00649461
2761.56	0.00677665
2771.21	0.00668556
2780.85	0.00672039
2790.49	0.00667015
2800.13	0.00688537
2809.78	0.00719425
2819.42	0.0070902
2829.06	0.00706568
2838.7	0.00776724
2848.34	0.00811057
2857.99	0.00743251
2867.63	0.00872287
2877.27	0.00826237
2886.91	0.00859024
2896.56	0.00878894
2906.2	0.00881754
2915.84	0.0092326
2925.48	0.00891477
2935.13	0.00908773
2944.77	0.00879151
2954.41	0.00949915
2964.05	0.00939032
2973.7	0.00881433
2983.34	0.00897788
2992.98	0.00949383
3002.62	0.00874329
3012.26	0.00906147
3021.91	0.00969698
3031.55	0.00951937
3041.19	0.00907234
3050.83	0.00961092
3060.48	0.0101537
3070.12	0.00969949
3079.76	0.00938825
3089.4	0.0097455
3099.05	0.00994503
3108.69	0.0101704
3118.33	0.0104014
3127.97	0.0107557
3137.61	0.0103963
3147.26	0.0103475
3156.9	0.0109494
3166.54	0.0107092
3176.18	0.0113029
3185.83	0.0107764
3195.47	0.0112822
3205.11	0.0108282
3214.75	0.0108208
3224.4	0.0111271
3234.04	0.0111481
3243.68	0.0108104
3253.32	0.0117085
3262.97	0.0103582
3272.61	0.0105767
3282.25	0.0109187
3291.89	0.0110767
3301.53	0.0109724
3311.18	0.0110175
3320.82	0.0106222
3330.46	0.0110638
3340.1	0.010543
3349.75	0.00992178
3359.39	0.0100456
3369.03	0.0107234
3378.67	0.00991896
3388.32	0.0105059
3397.96	0.0096095
3407.6	0.00882275
3417.24	0.0105085
3426.89	0.0103164
3436.53	0.00912244
3446.17	0.00826734
3455.81	0.00929339
3465.45	0.00771746
3475.1	0.0081077
3484.74	0.00823603
3494.38	0.00740997
3504.02	0.00679247
3513.67	0.00712472
3523.31	0.00722797
3532.95	0.0055738
3542.59	0.00620731
3552.24	0.00593911
3561.88	0.0057622
3571.52	0.00639494
3581.16	0.00505967
3590.8	0.00496582
3600.45	0.00384889
3610.09	0.00374574
3619.73	0.0033819
3629.37	0.00374136
3639.02	0.00343781
3648.66	0.00184121
3658.3	0.00226487
3667.94	0.00171645
3677.59	0.0019303
3687.23	0.0008151
3696.87	0.00224086
3706.51	0.00176569
3716.16	0.00206414
3725.8	0.00192198
3735.44	0.00205432
3745.08	0.00133583
3754.72	0.000143759
3764.37	0.00140277
3774.01	0.00202496
3783.65	0.00115596
3793.29	0.00212251
3802.94	0.00186264
3812.58	0.00221592
3822.22	0.00285501
3831.86	0.00182704
3841.51	0.0019758
3851.15	0.00186218
3860.79	0.00242901
3870.43	0.00164926
3880.07	0.00140536
3889.72	0.00244614
3899.36	0.00257531
3909	0.00137139
3918.64	0.00233119
3928.29	0.00216653
3937.93	0.00182421
3947.57	0.00290651
3957.21	0.00191279
3966.86	0.00194018
3976.5	0.00215038
3986.14	0.00292796
3995.78	0.0021295
