Measurement: Infrared, Infrared Data Processed
Mineral: Hydrotalcite
Rruff sample: R050457
Ideal chemistry: Mg_6_Al_2_CO_3_(OH)_16_(H_2_O)_4_
Locality: Snarum, Norway
Source: University of Arizona Mineral Museum
Description: Pearly-white foliated mass
Measured chemistry: Mg_6.00_(Al_1.60_Fe^3+^_0.40_)_Σ=2_(CO_3_)(OH)_16_·4H_2_O
x	intensity
374.123	0.388441
383.765	0.395278
393.407	0.378006
403.05	0.323065
412.692	0.292885
422.334	0.258348
431.976	0.226857
441.619	0.206035
451.261	0.187253
460.904	0.163572
470.546	0.148881
480.188	0.136874
489.83	0.134484
499.473	0.136957
509.115	0.146013
518.758	0.158057
528.4	0.169296
538.042	0.188052
547.684	0.210106
557.327	0.220454
566.969	0.221342
576.611	0.23007
586.254	0.241187
595.896	0.251909
605.538	0.259748
615.181	0.258188
624.823	0.251141
634.466	0.237413
644.108	0.220588
653.75	0.204651
663.393	0.19092
673.035	0.17973
682.677	0.172799
692.319	0.166133
701.962	0.160067
711.604	0.156051
721.246	0.15123
730.889	0.147394
740.531	0.144257
750.173	0.142269
759.816	0.140257
769.458	0.137493
779.101	0.132735
788.743	0.126988
798.385	0.120984
808.028	0.115201
817.67	0.109945
827.312	0.105311
836.955	0.101542
846.597	0.0986464
856.239	0.0950018
865.881	0.0907143
875.524	0.0860585
885.166	0.0819117
894.808	0.0786831
904.451	0.0759205
914.093	0.0737316
923.736	0.0711453
933.378	0.069611
943.02	0.0684516
952.663	0.0675995
962.305	0.0650591
971.947	0.0598458
981.59	0.0557639
991.232	0.0542505
1000.87	0.052894
1010.52	0.048825
1020.16	0.0428933
1029.8	0.039537
1039.44	0.0411153
1049.09	0.0433834
1058.73	0.0459452
1068.37	0.0478095
1078.01	0.0518701
1087.65	0.057453
1097.3	0.0644517
1106.94	0.0721018
1116.58	0.0710448
1126.22	0.064485
1135.87	0.0578557
1145.51	0.0487164
1155.15	0.042123
1164.79	0.0375628
1174.44	0.0343815
1184.08	0.033293
1193.72	0.0326059
1203.36	0.031716
1213.01	0.0324213
1222.65	0.0330927
1232.29	0.0332214
1241.93	0.0338775
1251.58	0.0349117
1261.22	0.0358136
1270.86	0.0377944
1280.5	0.0404612
1290.14	0.0436748
1299.79	0.0468317
1309.43	0.051235
1319.07	0.0576404
1328.71	0.0688308
1338.36	0.0901232
1348	0.119922
1357.64	0.13963
1367.28	0.146103
1376.92	0.133038
1386.57	0.116436
1396.21	0.100547
1405.85	0.085268
1415.49	0.0710643
1425.14	0.0592362
1434.78	0.0503019
1444.42	0.0440353
1454.06	0.0404474
1463.71	0.0378265
1473.35	0.0366775
1482.99	0.035464
1492.63	0.0358649
1502.28	0.0367784
1511.92	0.0368127
1521.56	0.0385848
1531.2	0.0396472
1540.85	0.0435967
1550.49	0.0472816
1560.13	0.055549
1569.77	0.061281
1579.41	0.0647517
1589.06	0.0649542
1598.7	0.064398
1608.34	0.063647
1617.98	0.063382
1627.63	0.0620571
1637.27	0.0606647
1646.91	0.0575709
1656.55	0.0516472
1666.19	0.0454195
1675.84	0.0394815
1685.48	0.0342155
1695.12	0.0290934
1704.77	0.0245389
1714.41	0.0214442
1724.05	0.0190616
1733.69	0.0186707
1743.33	0.015805
1752.98	0.0151309
1762.62	0.0149182
1772.26	0.0145539
1781.9	0.013386
1791.55	0.012976
1801.19	0.0119662
1810.83	0.0114578
1820.47	0.010858
1830.12	0.0108062
1839.76	0.0104696
1849.4	0.0104481
1859.04	0.0100176
1868.68	0.0101802
1878.33	0.00900844
1887.97	0.00930872
1897.61	0.00889267
1907.25	0.00933665
1916.9	0.00923902
1926.54	0.00917894
1936.18	0.00833192
1945.82	0.00748188
1955.46	0.00727867
1965.11	0.00748366
1974.75	0.00611513
1984.39	0.00873136
1994.04	0.00864677
2003.68	0.00694039
2013.32	0.00661198
2022.96	0.00722857
2032.6	0.00702573
2042.25	0.00745418
2051.89	0.00873172
2061.53	0.00839049
2071.17	0.00882603
2080.82	0.00913326
2090.46	0.00868395
2100.1	0.00906843
2109.74	0.00916905
2119.39	0.00840769
2129.03	0.00735563
2138.67	0.00743345
2148.31	0.00737319
2157.95	0.00591788
2167.6	0.00817864
2177.24	0.00579451
2186.88	0.00511314
2196.52	0.00655735
2206.17	0.00602738
2215.81	0.00610556
2225.45	0.00692179
2235.09	0.00754575
2244.74	0.00669741
2254.38	0.00720495
2264.02	0.00700966
2273.66	0.0074283
2283.3	0.00704277
2292.95	0.00737198
2302.59	0.00769555
2312.23	0.00800245
2321.87	0.00902303
2331.52	0.00930919
2341.16	0.00898292
2350.8	0.008588
2360.44	0.00964037
2370.09	0.00949948
2379.73	0.00830967
2389.37	0.0082513
2399.01	0.00835063
2408.66	0.00883105
2418.3	0.00889444
2427.94	0.00909041
2437.58	0.00942464
2447.22	0.00935757
2456.87	0.0097006
2466.51	0.00944005
2476.15	0.00924998
2485.79	0.00909116
2495.44	0.00895696
2505.08	0.00939709
2514.72	0.00936658
2524.36	0.00894952
2534.01	0.00924035
2543.65	0.00935393
2553.29	0.00973972
2562.93	0.00995698
2572.57	0.0106079
2582.22	0.0108097
2591.86	0.0108517
2601.5	0.0110744
2611.14	0.0114736
2620.79	0.0119671
2630.43	0.0127834
2640.07	0.0131272
2649.71	0.0133996
2659.36	0.0141231
2669	0.0146781
2678.64	0.0145404
2688.28	0.015196
2697.93	0.0156655
2707.57	0.01604
2717.21	0.0170359
2726.85	0.0178709
2736.49	0.0185577
2746.14	0.0196038
2755.78	0.0203735
2765.42	0.0215454
2775.06	0.0228519
2784.71	0.0239234
2794.35	0.025427
2803.99	0.0267485
2813.63	0.028515
2823.28	0.0295737
2832.92	0.0319513
2842.56	0.0336649
2852.2	0.0362608
2861.84	0.0365583
2871.49	0.0382874
2881.13	0.0393297
2890.77	0.0417961
2900.41	0.0437517
2910.06	0.0458508
2919.7	0.0485861
2929.34	0.0499797
2938.98	0.0494476
2948.62	0.0504978
2958.27	0.0521401
2967.91	0.0530952
2977.55	0.0531878
2987.2	0.0544438
2996.84	0.0556498
3006.48	0.0581553
3016.12	0.0572594
3025.76	0.0604571
3035.41	0.0621909
3045.05	0.063547
3054.69	0.0655259
3064.33	0.0668076
3073.98	0.0684845
3083.62	0.0705422
3093.26	0.0715717
3102.9	0.0731652
3112.55	0.0751925
3122.19	0.0773992
3131.83	0.0794027
3141.47	0.0817295
3151.11	0.0839647
3160.76	0.0863885
3170.4	0.0889086
3180.04	0.0913908
3189.68	0.0939243
3199.33	0.0968723
3208.97	0.0997983
3218.61	0.102221
3228.25	0.105589
3237.9	0.108863
3247.54	0.112031
3257.18	0.115522
3266.82	0.120421
3276.47	0.124437
3286.11	0.129433
3295.75	0.135075
3305.39	0.140531
3315.03	0.147362
3324.68	0.154412
3334.32	0.162844
3343.96	0.170724
3353.6	0.17845
3363.25	0.185337
3372.89	0.194303
3382.53	0.201379
3392.17	0.208525
3401.82	0.214219
3411.46	0.21955
3421.1	0.22461
3430.74	0.227892
3440.39	0.230047
3450.03	0.232666
3459.67	0.232436
3469.31	0.229411
3478.95	0.226646
3488.6	0.222397
3498.24	0.21705
3507.88	0.213237
3517.52	0.207845
3527.17	0.202858
3536.81	0.198074
3546.45	0.193555
3556.09	0.187262
3565.74	0.181559
3575.38	0.173049
3585.02	0.163883
3594.66	0.155094
3604.3	0.145737
3613.95	0.135114
3623.59	0.124572
3633.23	0.110667
3642.87	0.0951017
3652.52	0.0770121
3662.16	0.0576454
3671.8	0.0411109
3681.44	0.0272351
3691.09	0.0171425
3700.73	0.0096602
3710.37	0.00544469
3720.01	-0.00153169
3729.66	-0.00400985
3739.3	-0.00557846
3748.94	-0.00383637
3758.58	-0.00585198
3768.22	-0.00552328
3777.87	-0.00646626
3787.51	-0.00725178
3797.15	-0.00558957
3806.79	-0.00525545
3816.44	-0.00496348
3826.08	-0.0063907
3835.72	-0.00568808
3845.36	-0.00572465
3855.01	-0.0039097
3864.65	-0.00414919
3874.29	-0.00468874
3883.93	-0.00481592
3893.57	-0.00559829
3903.22	-0.00409521
3912.86	-0.00550651
3922.5	-0.00519735
3932.14	-0.00481483
3941.79	-0.00520494
3951.43	-0.00672945
3961.07	-0.00633073
3970.71	-0.00541061
3980.36	-0.00669815
3990	-0.00542261
3999.64	-0.00548233
