Measurement: Infrared, Infrared Data Processed
Mineral: Hydroxylherderite
Rruff sample: R050520
Ideal chemistry: CaBe(P^5+^O_4_)(OH)
Locality: Virgem da Lapa, Minas Gerais, Brazil
Source: University of Arizona Mineral Museum
Description: White massive associated with a dark green tourmaline
Measured chemistry: Ca_1.00_Be_1.00_(P_1.00_O_4_)((OH)_0.53_F_0.47_)_Î£=1_ ; Be not measured but estimated by difference and charge balance
x	intensity
374.123	0.147426
383.765	0.0636433
393.407	0.057419
403.05	0.103576
412.692	0.164239
422.334	0.125026
431.976	0.0647236
441.619	0.0847371
451.261	0.135273
460.904	0.199306
470.546	0.11503
480.188	0.121914
489.83	0.0786811
499.473	0.110592
509.115	0.153255
518.758	0.195234
528.4	0.256235
538.042	0.32516
547.684	0.32664
557.327	0.229797
566.969	0.193263
576.611	0.170502
586.254	0.117174
595.896	0.0572168
605.538	0.0369028
615.181	0.0455285
624.823	0.0724076
634.466	0.127296
644.108	0.0548204
653.75	0.0648439
663.393	0.112542
673.035	0.150329
682.677	0.21257
692.319	0.270679
701.962	0.258007
711.604	0.245777
721.246	0.250846
730.889	0.247204
740.531	0.204795
750.173	0.182498
759.816	0.217549
769.458	0.271592
779.101	0.313958
788.743	0.281274
798.385	0.230981
808.028	0.197705
817.67	0.170249
827.312	0.146271
836.955	0.125688
846.597	0.101938
856.239	0.0771633
865.881	0.0544454
875.524	0.041033
885.166	0.0449955
894.808	0.0661337
904.451	0.0710983
914.093	0.0473557
923.736	0.0408981
933.378	0.0478948
943.02	0.0651306
952.663	0.0964266
962.305	0.149639
971.947	0.238099
981.59	0.298752
991.232	0.329513
1000.87	0.352926
1010.52	0.346091
1020.16	0.306445
1029.8	0.274724
1039.44	0.210772
1049.09	0.139745
1058.73	0.0977966
1068.37	0.151028
1078.01	0.247998
1087.65	0.240205
1097.3	0.27882
1106.94	0.253313
1116.58	0.196773
1126.22	0.155204
1135.87	0.142988
1145.51	0.150111
1155.15	0.101352
1164.79	0.0678191
1174.44	0.0413919
1184.08	0.0207558
1193.72	0.0109988
1203.36	0.00747488
1213.01	0.00596051
1222.65	0.00519787
1232.29	0.00442635
1241.93	0.00371811
1251.58	0.00323671
1261.22	0.00303045
1270.86	0.00276036
1280.5	0.00289014
1290.14	0.00248753
1299.79	0.00237632
1309.43	0.00199347
1319.07	0.00186119
1328.71	0.00162822
1338.36	0.00152905
1348	0.00146272
1357.64	0.00150451
1367.28	0.00153455
1376.92	0.00186733
1386.57	0.00205847
1396.21	0.0025239
1405.85	0.00258268
1415.49	0.00302015
1425.14	0.00320148
1434.78	0.00348012
1444.42	0.00347041
1454.06	0.00362722
1463.71	0.00359701
1473.35	0.00340576
1482.99	0.0027756
1492.63	0.00273133
1502.28	0.00290167
1511.92	0.00297794
1521.56	0.00339555
1531.2	0.0031767
1540.85	0.00403013
1550.49	0.00348932
1560.13	0.00433434
1569.77	0.00368345
1579.41	0.00348445
1589.06	0.00342906
1598.7	0.00369844
1608.34	0.00355027
1617.98	0.00387685
1627.63	0.00363949
1637.27	0.00372193
1646.91	0.00382789
1656.55	0.00315576
1666.19	0.00281207
1675.84	0.0028698
1685.48	0.00315137
1695.12	0.00331393
1704.77	0.00274726
1714.41	0.00298851
1724.05	0.00282746
1733.69	0.00380282
1743.33	0.0026293
1752.98	0.00196046
1762.62	0.00238426
1772.26	0.00272107
1781.9	0.00214404
1791.55	0.00244048
1801.19	0.00232045
1810.83	0.00234507
1820.47	0.00243341
1830.12	0.00270222
1839.76	0.0026049
1849.4	0.0026579
1859.04	0.00242578
1868.68	0.00242447
1878.33	0.00253579
1887.97	0.00238947
1897.61	0.00245332
1907.25	0.00284145
1916.9	0.00260324
1926.54	0.00205468
1936.18	0.00228249
1945.82	0.000955073
1955.46	0.000627127
1965.11	0.00279241
1974.75	0.00297193
1984.39	0.00400924
1994.04	0.00306321
2003.68	0.0015662
2013.32	0.00399066
2022.96	0.00241567
2032.6	0.00487301
2042.25	0.00324774
2051.89	0.00412398
2061.53	0.00310799
2071.17	0.00351815
2080.82	0.00327791
2090.46	0.00279721
2100.1	0.00414673
2109.74	0.0033338
2119.39	0.0034962
2129.03	0.00298054
2138.67	0.00245899
2148.31	0.00130303
2157.95	0.00150698
2167.6	0.00299775
2177.24	0.00357174
2186.88	0.0033624
2196.52	0.00323871
2206.17	0.00250726
2215.81	0.00202829
2225.45	0.00284813
2235.09	0.00353061
2244.74	0.00318231
2254.38	0.00458934
2264.02	0.00422184
2273.66	0.00457109
2283.3	0.00388036
2292.95	0.00307128
2302.59	0.00402874
2312.23	0.00388905
2321.87	0.00513757
2331.52	0.004107
2341.16	0.00402398
2350.8	0.00370279
2360.44	0.0049551
2370.09	0.00442574
2379.73	0.00407523
2389.37	0.00417986
2399.01	0.00425985
2408.66	0.00447014
2418.3	0.00440729
2427.94	0.00476712
2437.58	0.00495219
2447.22	0.00538233
2456.87	0.00509489
2466.51	0.00495133
2476.15	0.00474224
2485.79	0.00522065
2495.44	0.00518094
2505.08	0.00475555
2514.72	0.00530179
2524.36	0.00461227
2534.01	0.00493144
2543.65	0.00542448
2553.29	0.00544549
2562.93	0.0054648
2572.57	0.00570718
2582.22	0.00639456
2591.86	0.00566123
2601.5	0.00596918
2611.14	0.00642952
2620.79	0.00648771
2630.43	0.0062402
2640.07	0.00657585
2649.71	0.00639827
2659.36	0.00641638
2669	0.00601402
2678.64	0.00597024
2688.28	0.00632418
2697.93	0.00622183
2707.57	0.0060664
2717.21	0.00605551
2726.85	0.00628041
2736.49	0.00637334
2746.14	0.00668901
2755.78	0.00663867
2765.42	0.00682666
2775.06	0.00705631
2784.71	0.00713476
2794.35	0.00679835
2803.99	0.00729016
2813.63	0.00734234
2823.28	0.00728951
2832.92	0.0076831
2842.56	0.00797969
2852.2	0.00864202
2861.84	0.0086868
2871.49	0.00814925
2881.13	0.00817943
2890.77	0.00846195
2900.41	0.0092718
2910.06	0.00981066
2919.7	0.0104209
2929.34	0.0111992
2938.98	0.0097619
2948.62	0.00996056
2958.27	0.00996838
2967.91	0.00938666
2977.55	0.00885832
2987.2	0.0088487
2996.84	0.00882864
3006.48	0.00885109
3016.12	0.00950521
3025.76	0.00875611
3035.41	0.00836246
3045.05	0.00868743
3054.69	0.00899235
3064.33	0.00916167
3073.98	0.0094431
3083.62	0.00942505
3093.26	0.00919383
3102.9	0.00994983
3112.55	0.010504
3122.19	0.0104217
3131.83	0.0100841
3141.47	0.0105097
3151.11	0.0099198
3160.76	0.0104225
3170.4	0.0109583
3180.04	0.0104522
3189.68	0.0106803
3199.33	0.0109597
3208.97	0.0114015
3218.61	0.0114646
3228.25	0.0113524
3237.9	0.0112064
3247.54	0.0110514
3257.18	0.0112945
3266.82	0.011615
3276.47	0.0112253
3286.11	0.0112401
3295.75	0.0117235
3305.39	0.011337
3315.03	0.0113789
3324.68	0.0117672
3334.32	0.0112942
3343.96	0.010963
3353.6	0.0111966
3363.25	0.0118667
3372.89	0.012142
3382.53	0.0116079
3392.17	0.0117816
3401.82	0.0112032
3411.46	0.011116
3421.1	0.0106123
3430.74	0.0112274
3440.39	0.0114527
3450.03	0.0112785
3459.67	0.0109789
3469.31	0.0111085
3478.95	0.0119299
3488.6	0.0113119
3498.24	0.0109819
3507.88	0.0113968
3517.52	0.011632
3527.17	0.0112329
3536.81	0.0115687
3546.45	0.0123403
3556.09	0.0164681
3565.74	0.0463042
3575.38	0.0370803
3585.02	0.0113786
3594.66	0.0123788
3604.3	0.0262038
3613.95	0.0144878
3623.59	0.00919864
3633.23	0.00809398
3642.87	0.00701748
3652.52	0.00729084
3662.16	0.00794318
3671.8	0.00847228
3681.44	0.00662993
3691.09	0.00778608
3700.73	0.00814416
3710.37	0.00834576
3720.01	0.00790907
3729.66	0.00780189
3739.3	0.0074653
3748.94	0.00895127
3758.58	0.00747518
3768.22	0.00750824
3777.87	0.0068352
3787.51	0.00660037
3797.15	0.00781284
3806.79	0.00767784
3816.44	0.00830494
3826.08	0.00701011
3835.72	0.00767262
3845.36	0.00737238
3855.01	0.00890748
3864.65	0.00819095
3874.29	0.00776097
3883.93	0.00831005
3893.57	0.00640899
3903.22	0.0069945
3912.86	0.00684595
3922.5	0.00711019
3932.14	0.00630171
3941.79	0.00646419
3951.43	0.00696775
3961.07	0.00691553
3970.71	0.0072194
3980.36	0.00657087
3990	0.00669032
3999.64	0.00740656
