Measurement: Infrared, Infrared Data Processed
Mineral: Hydroxylherderite
Rruff sample: R050518
Ideal chemistry: CaBe(P^5+^O_4_)(OH)
Locality: Mt. Apatite, Auburn, Maine, USA
Source: University of Arizona Mineral Museum
Description: Colorless prismatic crystals
Measured chemistry: Ca_1.00_Be_1.00_(P_1.00_O_4_)((OH)_0.75_F_0.25_)_Î£=1_
x	intensity
399.193	0.112334
408.835	0.176476
418.477	0.205718
428.12	0.101985
437.762	0.0983532
447.404	0.138588
457.047	0.215076
466.689	0.179749
476.331	0.125818
485.974	0.0934354
495.616	0.110992
505.258	0.15273
514.901	0.207881
524.543	0.265715
534.185	0.334775
543.828	0.369775
553.47	0.295266
563.112	0.19732
572.755	0.212545
582.397	0.155829
592.039	0.0941466
601.682	0.0564716
611.324	0.0571695
620.966	0.0761047
630.609	0.113758
640.251	0.107581
649.893	0.0777463
659.536	0.112685
669.178	0.138222
678.82	0.194121
688.463	0.26777
698.105	0.301485
707.747	0.280141
717.39	0.270836
727.032	0.272539
736.674	0.241818
746.317	0.203114
755.959	0.229342
765.601	0.28922
775.244	0.345814
784.886	0.320288
794.528	0.265241
804.171	0.225273
813.813	0.196995
823.455	0.173911
833.098	0.155158
842.74	0.132256
852.382	0.104039
862.025	0.0766583
871.667	0.0566041
881.309	0.054105
890.952	0.0711953
900.594	0.0891804
910.236	0.0687004
919.879	0.0536695
929.521	0.0567117
939.163	0.072289
948.806	0.103283
958.448	0.158947
968.09	0.250285
977.733	0.358614
987.375	0.404377
997.017	0.4221
1006.66	0.416643
1016.3	0.375118
1025.94	0.32922
1035.59	0.271549
1045.23	0.193099
1054.87	0.133235
1064.51	0.153586
1074.16	0.268064
1083.8	0.266945
1093.44	0.284431
1103.08	0.301672
1112.72	0.231459
1122.37	0.185555
1132.01	0.168913
1141.65	0.177364
1151.3	0.134584
1160.94	0.0931838
1170.58	0.0620676
1180.22	0.0360218
1189.86	0.0208876
1199.51	0.0140445
1209.15	0.0107214
1218.79	0.00831934
1228.43	0.00652019
1238.08	0.00532648
1247.72	0.0042943
1257.36	0.00364572
1267	0.00325267
1276.64	0.00336749
1286.29	0.00296113
1295.93	0.00266095
1305.57	0.0024425
1315.21	0.00212954
1324.86	0.00195774
1334.5	0.00165863
1344.14	0.00156555
1353.78	0.00148691
1363.43	0.00163591
1373.07	0.00256922
1382.71	0.00293508
1392.35	0.00270938
1401.99	0.0030402
1411.64	0.00325364
1421.28	0.00336359
1430.92	0.00322945
1440.57	0.00341966
1450.21	0.00314978
1459.85	0.00304163
1469.49	0.00288177
1479.13	0.00288489
1488.78	0.00285612
1498.42	0.00305245
1508.06	0.00349683
1517.7	0.00445453
1527.35	0.00498994
1536.99	0.00417333
1546.63	0.00395689
1556.27	0.00414726
1565.91	0.00414771
1575.56	0.00415864
1585.2	0.00433551
1594.84	0.00449042
1604.48	0.00448945
1614.13	0.00463188
1623.77	0.00468938
1633.41	0.00452302
1643.05	0.00411254
1652.7	0.00471352
1662.34	0.0039186
1671.98	0.0032597
1681.62	0.0032251
1691.27	0.00265055
1700.91	0.00263315
1710.55	0.00204736
1720.19	0.00182985
1729.84	0.00141561
1739.48	0.000556667
1749.12	0.000195789
1758.76	0.000656106
1768.4	0.00115001
1778.05	0.0012087
1787.69	0.00104955
1797.33	0.00130594
1806.97	0.00079579
1816.62	0.00060737
1826.26	0.00116484
1835.9	0.000925766
1845.54	0.000933893
1855.18	0.00102348
1864.83	0.00101352
1874.47	0.000971418
1884.11	0.000680052
1893.75	0.00118179
1903.4	0.00109823
1913.04	0.000578889
1922.68	0.000376509
1932.32	5.80525e-05
1941.97	9.13574e-05
1951.61	-0.000355482
1961.25	0.000480668
1970.89	-7.55768e-06
1980.54	0.00192211
1990.18	-2.69935e-05
1999.82	0.00175814
2009.46	0.00161579
2019.11	0.00163579
2028.75	0.00356945
2038.39	0.00114704
2048.03	0.001449
2057.67	0.00165943
2067.32	0.00121038
2076.96	0.00191024
2086.6	0.00212784
2096.24	0.00233618
2105.89	0.00351639
2115.53	0.00359821
2125.17	0.00213181
2134.81	0.00106272
2144.45	-0.000838428
2154.1	0.000411933
2163.74	0.00405007
2173.38	0.0030841
2183.02	0.00213357
2192.67	0.00228908
2202.31	0.00313348
2211.95	0.00255281
2221.59	0.00286666
2231.24	0.00332141
2240.88	0.00487848
2250.52	0.00417941
2260.16	0.00393483
2269.8	0.00462377
2279.45	0.00448032
2289.09	0.0041929
2298.73	0.00323255
2308.38	0.00292035
2318.02	0.00347657
2327.66	0.00304616
2337.3	0.00278124
2346.94	0.00289978
2356.59	0.0030096
2366.23	0.00294684
2375.87	0.00273767
2385.51	0.00259346
2395.16	0.00302073
2404.8	0.00213173
2414.44	0.00334089
2424.08	0.00326703
2433.72	0.00314133
2443.37	0.00337621
2453.01	0.00449724
2462.65	0.0041743
2472.29	0.00390459
2481.94	0.00355363
2491.58	0.00362885
2501.22	0.00395618
2510.86	0.00413545
2520.51	0.00401828
2530.15	0.00504782
2539.79	0.00485427
2549.43	0.00476967
2559.07	0.00517587
2568.72	0.00533174
2578.36	0.0054143
2588	0.00577724
2597.64	0.00609265
2607.29	0.00608172
2616.93	0.00628702
2626.57	0.00585803
2636.21	0.00632525
2645.86	0.00613508
2655.5	0.00582277
2665.14	0.00538013
2674.78	0.00534208
2684.43	0.0050542
2694.07	0.00505185
2703.71	0.00540098
2713.35	0.00516126
2722.99	0.00519195
2732.64	0.00560499
2742.28	0.00553088
2751.92	0.00576765
2761.56	0.00580269
2771.21	0.00603061
2780.85	0.00599958
2790.49	0.00578538
2800.13	0.00580159
2809.78	0.00584827
2819.42	0.00596941
2829.06	0.00678681
2838.7	0.00640632
2848.34	0.00572141
2857.99	0.00577652
2867.63	0.00606263
2877.27	0.00647562
2886.91	0.00635644
2896.56	0.00679878
2906.2	0.00613962
2915.84	0.00608619
2925.48	0.00521692
2935.13	0.00586624
2944.77	0.00612793
2954.41	0.00698194
2964.05	0.00695178
2973.7	0.00693468
2983.34	0.00740663
2992.98	0.00737534
3002.62	0.00727435
3012.26	0.0078186
3021.91	0.00793792
3031.55	0.0083922
3041.19	0.00809069
3050.83	0.00831665
3060.48	0.00836112
3070.12	0.00872442
3079.76	0.00887212
3089.4	0.00979863
3099.05	0.00910822
3108.69	0.00927784
3118.33	0.00953774
3127.97	0.00946176
3137.61	0.0103163
3147.26	0.0103981
3156.9	0.0108851
3166.54	0.0104645
3176.18	0.0107507
3185.83	0.0112149
3195.47	0.0110899
3205.11	0.0113161
3214.75	0.0115527
3224.4	0.0108014
3234.04	0.0109783
3243.68	0.011091
3253.32	0.0110248
3262.97	0.011763
3272.61	0.0119943
3282.25	0.0119665
3291.89	0.0117248
3301.53	0.0117065
3311.18	0.0120678
3320.82	0.0116934
3330.46	0.0124248
3340.1	0.0125258
3349.75	0.012421
3359.39	0.0122736
3369.03	0.0124572
3378.67	0.0122218
3388.32	0.0121291
3397.96	0.0126599
3407.6	0.012616
3417.24	0.0122357
3426.89	0.0121783
3436.53	0.0121795
3446.17	0.0125135
3455.81	0.0113947
3465.45	0.011651
3475.1	0.0111591
3484.74	0.0112245
3494.38	0.0108732
3504.02	0.0115812
3513.67	0.0106988
3523.31	0.0108799
3532.95	0.0110614
3542.59	0.0113027
3552.24	0.0138953
3561.88	0.0266915
3571.52	0.0376127
3581.16	0.0153997
3590.8	0.0101153
3600.45	0.0219426
3610.09	0.027965
3619.73	0.00807353
3629.37	0.00624237
3639.02	0.00516423
3648.66	0.00456945
3658.3	0.00490762
3667.94	0.00464414
3677.59	0.00390575
3687.23	0.00468386
3696.87	0.00428184
3706.51	0.00486993
3716.16	0.00527506
3725.8	0.00480587
3735.44	0.0055195
3745.08	0.00501789
3754.72	0.00403559
3764.37	0.00539431
3774.01	0.00554092
3783.65	0.00475043
3793.29	0.00431171
3802.94	0.00499199
3812.58	0.00510945
3822.22	0.00530789
3831.86	0.00604023
3841.51	0.00507427
3851.15	0.00568032
3860.79	0.00454415
3870.43	0.00522582
3880.07	0.00394994
3889.72	0.00477073
3899.36	0.00480108
3909	0.00405122
3918.64	0.00453886
3928.29	0.00450402
3937.93	0.00465828
3947.57	0.00421287
3957.21	0.00394463
3966.86	0.00395554
3976.5	0.0050788
3986.14	0.00392594
3995.78	0.00392126
