Measurement: Infrared, Infrared Data Processed
Mineral: Inderite
Rruff sample: R050195
Ideal chemistry: MgB_3_O_3_(OH)_5_5H_2_O
Locality: Boron, Kern County, California, USA
Source: Dave Bunk Minerals
Description: Colorless prismatic crystal
Measured chemistry: Mg_1.00_B_3.00_O_3_(OH)_5_Â·5H_2_O ; Mg measured, only
x	intensity
50.1401	0.00159259
52.0686	0.00310583
53.9971	0.00313617
55.9255	0.00434503
57.854	0.0075816
59.7825	0.00907026
61.7109	0.00825996
63.6394	0.00966433
65.5679	0.00947577
67.4963	0.0097519
69.4248	0.011238
71.3533	0.0116373
73.2817	0.0150195
75.2102	0.0162304
77.1387	0.0139942
79.0671	0.0111161
80.9956	0.00980232
82.9241	0.0103141
84.8525	0.0113271
86.781	0.0112354
88.7095	0.0108386
90.6379	0.0109341
92.5664	0.0115113
94.4948	0.0128275
96.4233	0.0148654
98.3518	0.0161925
100.28	0.0167273
102.209	0.0170575
104.137	0.0172924
106.066	0.0183984
107.994	0.0201598
109.923	0.0209571
111.851	0.0199689
113.779	0.0184121
115.708	0.0181334
117.636	0.018762
119.565	0.0198597
121.493	0.0193078
123.422	0.0188195
125.35	0.0193284
127.279	0.0201271
129.207	0.0200124
131.136	0.0205171
133.064	0.021351
134.993	0.0230352
136.921	0.0250693
138.85	0.0254125
140.778	0.0241755
142.707	0.0239017
144.635	0.0248142
146.563	0.0256253
148.492	0.0252979
150.42	0.0235394
152.349	0.0213751
154.277	0.0202463
156.206	0.0201449
158.134	0.0205322
160.063	0.0205828
161.991	0.0209905
163.92	0.0213279
165.848	0.021632
167.777	0.0223344
169.705	0.0232888
171.633	0.0245398
173.562	0.0262715
175.49	0.0280988
177.419	0.0302546
179.347	0.0329178
181.276	0.0354621
183.204	0.0364231
185.133	0.0362107
187.061	0.0357708
188.99	0.0351419
190.918	0.0338181
192.847	0.0317137
194.775	0.0293172
196.704	0.0279533
198.632	0.0275946
200.56	0.0279115
202.489	0.0279452
204.417	0.0280575
206.346	0.0288297
208.274	0.0306175
210.203	0.0330338
212.131	0.035022
214.06	0.0363342
215.988	0.0365154
217.917	0.0355924
219.845	0.0342238
221.774	0.0328433
223.702	0.0318687
225.631	0.0317417
227.559	0.0322311
229.488	0.0317725
231.416	0.0300715
233.344	0.0281144
235.273	0.0269252
237.201	0.0267249
239.13	0.027549
241.058	0.0289511
242.987	0.0308352
244.915	0.0329179
246.844	0.0351691
248.772	0.0372508
250.701	0.0379506
252.629	0.0372738
254.558	0.0355369
256.486	0.033429
258.414	0.0315759
260.343	0.0300141
262.271	0.0289222
264.2	0.0279306
266.128	0.0273496
268.057	0.0272062
269.985	0.0275649
271.914	0.0282325
273.842	0.0290762
275.771	0.0298545
277.699	0.0307259
279.628	0.0312326
281.556	0.0312033
283.485	0.0307351
285.413	0.0301442
287.341	0.0294049
289.27	0.0285788
291.198	0.0279968
293.127	0.0278437
295.055	0.0276757
296.984	0.0277015
298.912	0.0278167
300.841	0.0280769
302.769	0.0286094
304.698	0.0291777
306.626	0.029491
308.555	0.0298999
310.483	0.0303851
312.411	0.03109
314.34	0.0319151
316.269	0.0331281
318.197	0.0346731
320.125	0.035792
322.054	0.0365064
323.982	0.0369641
325.911	0.0369193
327.839	0.0362588
329.768	0.0355863
331.696	0.0357255
333.625	0.0361384
335.553	0.0363204
337.482	0.0361637
339.41	0.0361164
341.339	0.0364415
343.267	0.0367849
345.195	0.037229
347.124	0.0377241
349.052	0.038304
350.981	0.0389533
352.909	0.0394085
354.838	0.0399056
356.766	0.0403069
358.695	0.0404855
360.623	0.0403789
362.552	0.0400942
364.48	0.0396444
366.409	0.0396994
368.337	0.0399327
370.265	0.0400829
372.194	0.0403355
374.122	0.0409902
376.051	0.0413736
377.979	0.0414404
379.908	0.0416789
381.836	0.0421723
383.765	0.0425272
385.693	0.0427348
387.622	0.0431871
389.55	0.0439049
391.479	0.0446793
393.407	0.0453989
395.336	0.0460514
397.264	0.0464365
399.192	0.0466935
401.121	0.0469381
403.049	0.0471021
404.978	0.0470987
406.906	0.0470249
408.835	0.0472508
410.763	0.0478283
412.692	0.048195
414.62	0.0481539
416.549	0.0482212
418.477	0.0485071
420.406	0.0487858
422.334	0.0491368
424.262	0.0498294
426.191	0.0505252
428.12	0.0514403
430.048	0.0527167
431.976	0.0538971
433.905	0.0544774
435.833	0.0548453
437.762	0.0548502
439.69	0.0543615
441.619	0.0535176
443.547	0.0528772
445.476	0.0524169
447.404	0.0521926
449.333	0.0524839
451.261	0.0530529
453.19	0.0536942
455.118	0.0542823
457.046	0.0541002
458.975	0.0532857
460.903	0.0520416
462.832	0.0507456
464.76	0.0498562
466.689	0.0493333
468.617	0.0488403
470.546	0.048858
472.474	0.0490707
474.403	0.0490988
476.331	0.0494533
478.26	0.0504202
480.188	0.0510831
482.116	0.0519079
484.045	0.0535079
485.974	0.0551198
487.902	0.055773
489.83	0.0554283
491.759	0.0546191
493.687	0.053501
495.616	0.0524991
497.544	0.0520104
499.473	0.0519382
501.401	0.0520278
503.33	0.052173
505.258	0.052198
507.187	0.0523981
509.115	0.0528407
511.043	0.0526813
512.972	0.0525354
514.9	0.0526491
516.829	0.0529756
518.757	0.0532458
520.686	0.0535564
522.614	0.0537782
524.543	0.0540708
526.471	0.0538921
528.4	0.0541476
530.328	0.0546384
532.257	0.0551205
534.185	0.0554317
536.114	0.0554184
538.042	0.0557484
539.971	0.056218
541.899	0.0565464
543.827	0.0570163
545.756	0.0574076
547.684	0.0577531
549.613	0.0583354
551.541	0.0589872
553.47	0.0596484
555.398	0.0605259
557.327	0.0615319
559.255	0.0624441
561.184	0.0630098
563.112	0.0632929
565.041	0.0632798
566.969	0.0633732
568.898	0.0632078
570.826	0.0625361
572.755	0.0621773
574.683	0.0622826
576.611	0.0621913
578.54	0.0620519
580.468	0.0620777
582.397	0.0621079
584.325	0.0615393
586.254	0.0606408
588.182	0.0588969
590.111	0.0569074
592.039	0.0554399
593.968	0.0547767
595.896	0.0545917
597.824	0.0545567
599.753	0.0546269
601.682	0.0547581
603.61	0.054971
605.538	0.0554524
607.467	0.0555648
609.395	0.0564211
611.324	0.0573731
613.252	0.0574024
615.181	0.0579223
617.109	0.0587333
619.038	0.0594499
620.966	0.0600251
622.894	0.0602299
624.823	0.0605009
626.751	0.0616554
628.68	0.0634378
630.608	0.0646968
632.537	0.0653443
634.465	0.065727
636.394	0.0660234
638.322	0.0665155
640.251	0.0673031
642.179	0.067772
644.108	0.0681386
646.036	0.068485
647.965	0.0687278
649.893	0.0690728
651.822	0.0692882
653.75	0.0695437
655.678	0.0693166
657.607	0.0690558
659.535	0.0692044
661.464	0.0690969
663.392	0.0688186
665.321	0.0687301
667.249	0.0685545
669.178	0.0683587
671.106	0.0686172
673.035	0.0683755
674.963	0.0678281
676.892	0.067793
678.82	0.0676352
680.749	0.0669429
682.677	0.0662545
684.606	0.0660213
686.534	0.0659395
688.462	0.06549
690.391	0.0651988
692.319	0.0649328
694.248	0.0642718
696.176	0.0634496
698.105	0.0622796
700.033	0.0619306
