Measurement: Infrared, Infrared Data Processed
Mineral: Inyoite
Rruff sample: R050157
Ideal chemistry: CaB_3_O_3_(OH)_5_4H_2_O
Locality: Sijes, Salta, Argentina
Source: Jim McGlasson
Description: Group of colorless tabular crystals
Measured chemistry: (Ca_0.986_H_0.014_)(B_0.995_Si_0.005_)_3_O_3_(OH)_5_ Â·4H_2_O
x	intensity
374.123	0.105775
383.765	0.0838593
393.407	0.0793538
403.05	0.0918667
412.692	0.0950625
422.334	0.0897416
431.976	0.0992332
441.619	0.114049
451.261	0.136286
460.904	0.157105
470.546	0.139972
480.188	0.132951
489.83	0.134019
499.473	0.113627
509.115	0.103602
518.758	0.112064
528.4	0.140919
538.042	0.180216
547.684	0.166189
557.327	0.146247
566.969	0.137069
576.611	0.127254
586.254	0.118864
595.896	0.102609
605.538	0.0958921
615.181	0.0924615
624.823	0.0910661
634.466	0.0984693
644.108	0.106437
653.75	0.115358
663.393	0.129233
673.035	0.149221
682.677	0.16585
692.319	0.171638
701.962	0.173828
711.604	0.172147
721.246	0.163881
730.889	0.154586
740.531	0.123108
750.173	0.116165
759.816	0.105207
769.458	0.102707
779.101	0.117254
788.743	0.155078
798.385	0.222344
808.028	0.207499
817.67	0.114435
827.312	0.0856647
836.955	0.0950341
846.597	0.120674
856.239	0.155796
865.881	0.190826
875.524	0.213203
885.166	0.236921
894.808	0.23468
904.451	0.173539
914.093	0.15189
923.736	0.159855
933.378	0.163737
943.02	0.179258
952.663	0.226133
962.305	0.228737
971.947	0.204985
981.59	0.192938
991.232	0.181358
1000.87	0.194689
1010.52	0.189356
1020.16	0.146509
1029.8	0.126531
1039.44	0.134338
1049.09	0.163133
1058.73	0.197031
1068.37	0.183966
1078.01	0.156494
1087.65	0.156636
1097.3	0.168462
1106.94	0.169045
1116.58	0.15469
1126.22	0.135858
1135.87	0.124316
1145.51	0.129169
1155.15	0.150585
1164.79	0.173648
1174.44	0.166081
1184.08	0.129131
1193.72	0.0981593
1203.36	0.0893198
1213.01	0.0873907
1222.65	0.0840215
1232.29	0.0726691
1241.93	0.0630559
1251.58	0.0545215
1261.22	0.0452167
1270.86	0.0399662
1280.5	0.039313
1290.14	0.0427631
1299.79	0.0519544
1309.43	0.0725925
1319.07	0.114253
1328.71	0.15429
1338.36	0.143462
1348	0.111213
1357.64	0.0889342
1367.28	0.0844376
1376.92	0.0953111
1386.57	0.100229
1396.21	0.0956558
1405.85	0.112981
1415.49	0.149903
1425.14	0.148409
1434.78	0.117479
1444.42	0.0759068
1454.06	0.0515124
1463.71	0.0519536
1473.35	0.0603302
1482.99	0.0435778
1492.63	0.0265103
1502.28	0.0208323
1511.92	0.0186482
1521.56	0.0183027
1531.2	0.0178704
1540.85	0.0185528
1550.49	0.0181746
1560.13	0.0192515
1569.77	0.019286
1579.41	0.0196503
1589.06	0.0206175
1598.7	0.0221409
1608.34	0.0238188
1617.98	0.0265718
1627.63	0.0315197
1637.27	0.0425782
1646.91	0.0616244
1656.55	0.0518176
1666.19	0.0374842
1675.84	0.033742
1685.48	0.0326956
1695.12	0.0297978
1704.77	0.0244687
1714.41	0.0195455
1724.05	0.0163897
1733.69	0.0149098
1743.33	0.0128323
1752.98	0.0116974
1762.62	0.0111603
1772.26	0.010323
1781.9	0.0101972
1791.55	0.00998558
1801.19	0.00987171
1810.83	0.00958633
1820.47	0.00904668
1830.12	0.00885513
1839.76	0.00874027
1849.4	0.00880438
1859.04	0.0084132
1868.68	0.00853428
1878.33	0.00768327
1887.97	0.00790248
1897.61	0.00764256
1907.25	0.00784216
1916.9	0.00713162
1926.54	0.00734809
1936.18	0.00749665
1945.82	0.00670776
1955.46	0.00615507
1965.11	0.00728632
1974.75	0.00590787
1984.39	0.00898095
1994.04	0.00814072
2003.68	0.00717019
2013.32	0.00773391
2022.96	0.0083924
2032.6	0.00826468
2042.25	0.00946023
2051.89	0.0108819
2061.53	0.0100651
2071.17	0.0114709
2080.82	0.0117397
2090.46	0.0115302
2100.1	0.0121105
2109.74	0.0123693
2119.39	0.011874
2129.03	0.0111351
2138.67	0.0115869
2148.31	0.01171
2157.95	0.0121654
2167.6	0.0161407
2177.24	0.0129303
2186.88	0.0133483
2196.52	0.0141595
2206.17	0.0129723
2215.81	0.0133643
2225.45	0.014466
2235.09	0.0146475
2244.74	0.0139057
2254.38	0.0147675
2264.02	0.0142505
2273.66	0.0148271
2283.3	0.0148936
2292.95	0.0144708
2302.59	0.0146724
2312.23	0.0143205
2321.87	0.015977
2331.52	0.0152419
2341.16	0.0150156
2350.8	0.0149937
2360.44	0.015342
2370.09	0.0153439
2379.73	0.0150245
2389.37	0.0151348
2399.01	0.0149724
2408.66	0.0147732
2418.3	0.0153618
2427.94	0.0150809
2437.58	0.0151896
2447.22	0.015415
2456.87	0.0158032
2466.51	0.0159555
2476.15	0.0159468
2485.79	0.0154281
2495.44	0.0151529
2505.08	0.01554
2514.72	0.0151812
2524.36	0.0148282
2534.01	0.0150663
2543.65	0.0151819
2553.29	0.0152239
2562.93	0.0154741
2572.57	0.0157052
2582.22	0.0161683
2591.86	0.0157227
2601.5	0.0161412
2611.14	0.0166258
2620.79	0.0169249
2630.43	0.0168252
2640.07	0.0170913
2649.71	0.0170361
2659.36	0.0175852
2669	0.0173991
2678.64	0.0173103
2688.28	0.018266
2697.93	0.0187256
2707.57	0.0193796
2717.21	0.0202367
2726.85	0.0204597
2736.49	0.0212439
2746.14	0.0217261
2755.78	0.0221237
2765.42	0.0229023
2775.06	0.0231411
2784.71	0.0241803
2794.35	0.0249977
2803.99	0.025674
2813.63	0.0265069
2823.28	0.0275109
2832.92	0.0287124
2842.56	0.0293283
2852.2	0.0297049
2861.84	0.0318559
2871.49	0.0339664
2881.13	0.0357676
2890.77	0.0384453
2900.41	0.0397056
2910.06	0.0414595
2919.7	0.0420331
2929.34	0.0448211
2938.98	0.0472601
2948.62	0.0497357
2958.27	0.0531201
2967.91	0.0563524
2977.55	0.0601275
2987.2	0.0634965
2996.84	0.067636
3006.48	0.0724487
3016.12	0.0753504
3025.76	0.0823051
3035.41	0.0887214
3045.05	0.0946169
3054.69	0.103166
3064.33	0.111149
3073.98	0.119897
3083.62	0.129219
3093.26	0.136845
3102.9	0.143723
3112.55	0.147402
3122.19	0.14921
3131.83	0.149677
3141.47	0.150174
3151.11	0.151834
3160.76	0.154728
3170.4	0.159567
3180.04	0.165524
3189.68	0.172539
3199.33	0.179546
3208.97	0.186919
3218.61	0.193489
3228.25	0.198445
3237.9	0.201307
3247.54	0.202841
3257.18	0.20014
3266.82	0.198073
3276.47	0.195188
3286.11	0.19383
3295.75	0.196598
3305.39	0.201542
3315.03	0.208617
3324.68	0.212988
3334.32	0.212553
3343.96	0.205088
3353.6	0.195214
3363.25	0.185182
3372.89	0.180576
3382.53	0.180019
3392.17	0.182499
3401.82	0.186667
3411.46	0.195056
3421.1	0.212193
3430.74	0.23833
3440.39	0.267574
3450.03	0.265111
3459.67	0.212797
3469.31	0.171792
3478.95	0.153747
3488.6	0.148677
3498.24	0.15163
3507.88	0.155834
3517.52	0.15571
3527.17	0.197972
3536.81	0.225092
3546.45	0.140167
3556.09	0.0853758
3565.74	0.0617191
3575.38	0.0474685
3585.02	0.0379499
3594.66	0.0321242
3604.3	0.0270661
3613.95	0.0223617
3623.59	0.0186313
3633.23	0.0149033
3642.87	0.0131636
3652.52	0.0103319
3662.16	0.00862965
3671.8	0.00792617
3681.44	0.00518823
3691.09	0.0060367
3700.73	0.00614945
3710.37	0.00639415
3720.01	0.00496133
3729.66	0.00524566
3739.3	0.00499763
3748.94	0.00667976
3758.58	0.006115
3768.22	0.00518219
3777.87	0.00610502
3787.51	0.00616388
3797.15	0.00681424
3806.79	0.00589744
3816.44	0.00716818
3826.08	0.00637482
3835.72	0.0065648
3845.36	0.00639432
3855.01	0.00684192
3864.65	0.00791798
3874.29	0.00731714
3883.93	0.00751032
3893.57	0.0070621
3903.22	0.0082145
3912.86	0.00724831
3922.5	0.00719087
3932.14	0.00807075
3941.79	0.00805172
3951.43	0.00719783
3961.07	0.00639808
3970.71	0.00820784
3980.36	0.00690093
3990	0.00870742
3999.64	0.00874067
