Measurement: Infrared, Infrared Data Processed
Mineral: Jamesonite
Rruff sample: R050481
Ideal chemistry: Pb^2+^_4_Fe^2+^Sb^3+^_6_S^2-^_14_
Locality: Itos mine, Oruro City, Bolivia
Source: California Institute of Technology
Description: A group of gray-black thickly acicular crystals
Measured chemistry: Pb_4.00_Fe_1.00_(Sb_5.97_As_0.03_)_Î£=6_S_14.00_
x	intensity
50.1401	0.0267385
52.0686	0.0359481
53.9971	0.0319082
55.9255	0.0216517
57.854	0.0250077
59.7825	0.0389469
61.7109	0.0346038
63.6394	0.0304449
65.5679	0.0282774
67.4963	0.0291573
69.4248	0.0313361
71.3533	0.0315343
73.2817	0.0311664
75.2102	0.0315402
77.1387	0.0341955
79.0671	0.0358937
80.9956	0.0367893
82.9241	0.0380651
84.8525	0.038698
86.781	0.0402556
88.7095	0.0392728
90.6379	0.0400283
92.5664	0.0415352
94.4948	0.0429494
96.4233	0.0433987
98.3518	0.0442556
100.28	0.0455386
102.209	0.0470925
104.137	0.0471166
106.066	0.0477967
107.994	0.0482692
109.923	0.0491804
111.851	0.0498203
113.779	0.0508929
115.708	0.0523179
117.636	0.0530738
119.565	0.054849
121.493	0.0569755
123.422	0.0570841
125.35	0.0584703
127.279	0.0603947
129.207	0.06183
131.136	0.0630696
133.064	0.0639932
134.993	0.0643373
136.921	0.0650424
138.85	0.066102
140.778	0.0667567
142.707	0.0669858
144.635	0.0672287
146.563	0.0666197
148.492	0.0666508
150.42	0.0672692
152.349	0.0685649
154.277	0.0694776
156.206	0.0700673
158.134	0.0704173
160.063	0.070958
161.991	0.0712689
163.92	0.072039
165.848	0.0727274
167.777	0.073221
169.705	0.0738926
171.633	0.0745125
173.562	0.0743802
175.49	0.0746759
177.419	0.0748866
179.347	0.0750087
181.276	0.0753116
183.204	0.0763952
185.133	0.0769235
187.061	0.0768351
188.99	0.0764531
190.918	0.075779
192.847	0.0748236
194.775	0.0742332
196.704	0.0738121
198.632	0.0734402
200.56	0.0730545
202.489	0.0733768
204.417	0.07304
206.346	0.0729286
208.274	0.073159
210.203	0.073649
212.131	0.0742867
214.06	0.0751765
215.988	0.0759095
217.917	0.0763703
219.845	0.0778356
221.774	0.0792708
223.702	0.0801182
225.631	0.081098
227.559	0.0820018
229.488	0.082634
231.416	0.0830167
233.344	0.0835122
235.273	0.0842491
237.201	0.0849963
239.13	0.0852844
241.058	0.0858966
242.987	0.0866805
244.915	0.0869393
246.844	0.0869591
248.772	0.0869277
250.701	0.0868775
252.629	0.0875319
254.558	0.0876599
256.486	0.0877601
258.414	0.0875651
260.343	0.087469
262.271	0.0873136
264.2	0.0869569
266.128	0.0869504
268.057	0.0868911
269.985	0.0860798
271.914	0.0851918
273.842	0.0842913
275.771	0.0836388
277.699	0.0832393
279.628	0.0831127
281.556	0.0829823
283.485	0.0831106
285.413	0.0832366
287.341	0.0833825
289.27	0.0835014
291.198	0.0837032
293.127	0.0836696
295.055	0.0831829
296.984	0.0826966
298.912	0.0825474
300.841	0.0814967
302.769	0.0800978
304.698	0.079284
306.626	0.0790866
308.555	0.0791686
310.483	0.0795196
312.411	0.0800234
314.34	0.0802826
316.269	0.0797034
318.197	0.078907
320.125	0.0775954
322.054	0.0753471
323.982	0.0727892
325.911	0.0710312
327.839	0.070113
329.768	0.0700426
331.696	0.070071
333.625	0.0690098
335.553	0.0662255
337.482	0.0621453
339.41	0.0580453
341.339	0.0547695
343.267	0.0525048
345.195	0.0514696
347.124	0.0513351
349.052	0.0513868
350.981	0.0515485
352.909	0.0520885
354.838	0.0530637
356.766	0.0537636
358.695	0.0541841
360.623	0.0550572
362.552	0.0560399
364.48	0.057128
366.409	0.0578077
368.337	0.058555
370.265	0.0598153
372.194	0.0610681
374.122	0.062384
376.051	0.0633285
377.979	0.0639945
379.908	0.0647578
381.836	0.0656936
383.765	0.0667482
385.693	0.0676732
387.622	0.0684963
389.55	0.0695089
391.479	0.0703247
393.407	0.0713469
395.336	0.0722174
397.264	0.0731298
399.192	0.0741103
401.121	0.0748621
403.049	0.0757668
404.978	0.0767847
406.906	0.0779586
408.835	0.0788772
410.763	0.0797477
412.692	0.0808546
414.62	0.0818125
416.549	0.0827321
418.477	0.0836204
420.406	0.0847436
422.334	0.085868
424.262	0.0868735
426.191	0.0876888
428.12	0.0883782
430.048	0.0892415
431.976	0.0898555
433.905	0.0905174
435.833	0.0913024
437.762	0.0919003
439.69	0.0922887
441.619	0.092634
443.547	0.0931891
445.476	0.0936904
447.404	0.0940913
449.333	0.0945272
451.261	0.0955069
453.19	0.0962772
455.118	0.0964802
457.046	0.096832
458.975	0.0973923
460.903	0.097954
462.832	0.0984596
464.76	0.0988729
466.689	0.0993212
468.617	0.100292
470.546	0.101111
472.474	0.10186
474.403	0.102324
476.331	0.102806
478.26	0.103433
480.188	0.104492
482.116	0.10521
484.045	0.105536
485.974	0.105732
487.902	0.10623
489.83	0.107072
491.759	0.108189
493.687	0.108971
495.616	0.10959
497.544	0.110093
499.473	0.11048
501.401	0.110945
503.33	0.111513
505.258	0.112054
507.187	0.112842
509.115	0.113388
511.043	0.113847
512.972	0.113992
514.9	0.114516
516.829	0.114974
518.757	0.115144
520.686	0.115585
522.614	0.115946
524.543	0.116537
526.471	0.11707
528.4	0.117405
530.328	0.117673
532.257	0.118086
534.185	0.118555
536.114	0.118588
538.042	0.118821
539.971	0.119156
541.899	0.119759
543.827	0.120156
545.756	0.120513
547.684	0.121368
549.613	0.122262
551.541	0.122576
553.47	0.12301
555.398	0.123696
557.327	0.123975
559.255	0.124451
561.184	0.125007
563.112	0.125983
565.041	0.126854
566.969	0.127171
568.898	0.127733
570.826	0.12831
572.755	0.128719
574.683	0.129338
576.611	0.129644
578.54	0.129993
580.468	0.130391
582.397	0.130889
584.325	0.13128
586.254	0.132101
588.182	0.133076
590.111	0.133432
592.039	0.133834
593.968	0.134166
595.896	0.134838
597.824	0.135689
599.753	0.13649
601.682	0.136704
603.61	0.137534
605.538	0.138328
607.467	0.139289
609.395	0.14
611.324	0.1394
613.252	0.139822
615.181	0.140723
617.109	0.141882
619.038	0.142808
620.966	0.1441
622.894	0.145231
624.823	0.146193
626.751	0.146662
628.68	0.146817
630.608	0.146633
632.537	0.146023
634.465	0.145736
636.394	0.145532
638.322	0.145299
640.251	0.145333
642.179	0.145483
644.108	0.145526
646.036	0.145844
647.965	0.146195
649.893	0.146438
651.822	0.146547
653.75	0.146844
655.678	0.146953
657.607	0.146962
659.535	0.147289
661.464	0.147563
663.392	0.14792
665.321	0.148167
667.249	0.148772
669.178	0.149533
671.106	0.149445
673.035	0.149846
674.963	0.150586
676.892	0.151005
678.82	0.151696
680.749	0.152388
682.677	0.153012
684.606	0.152916
686.534	0.152552
688.462	0.153451
690.391	0.155216
692.319	0.155932
694.248	0.156463
696.176	0.157201
698.105	0.158498
700.033	0.160528
