Measurement: Infrared, Infrared Data Processed
Mineral: Jamesonite
Rruff sample: R050481
Ideal chemistry: Pb^2+^_4_Fe^2+^Sb^3+^_6_S^2-^_14_
Locality: Itos mine, Oruro City, Bolivia
Source: California Institute of Technology
Description: A group of gray-black thickly acicular crystals
Measured chemistry: Pb_4.00_Fe_1.00_(Sb_5.97_As_0.03_)_Î£=6_S_14.00_
x	intensity
374.123	0.145485
383.765	0.172879
393.407	0.190753
403.05	0.208175
412.692	0.23083
422.334	0.238006
431.976	0.253735
441.619	0.260969
451.261	0.270306
460.904	0.282491
470.546	0.288571
480.188	0.299026
489.83	0.305728
499.473	0.316616
509.115	0.323887
518.758	0.332604
528.4	0.338329
538.042	0.346047
547.684	0.354403
557.327	0.361653
566.969	0.366028
576.611	0.371959
586.254	0.37902
595.896	0.385479
605.538	0.388895
615.181	0.39088
624.823	0.394512
634.466	0.397141
644.108	0.399285
653.75	0.40071
663.393	0.403643
673.035	0.405786
682.677	0.410473
692.319	0.413633
701.962	0.416977
711.604	0.421585
721.246	0.423825
730.889	0.427779
740.531	0.430719
750.173	0.432916
759.816	0.434636
769.458	0.436977
779.101	0.440134
788.743	0.443064
798.385	0.44606
808.028	0.449163
817.67	0.45226
827.312	0.456654
836.955	0.459472
846.597	0.464442
856.239	0.468807
865.881	0.474573
875.524	0.480059
885.166	0.484062
894.808	0.490349
904.451	0.495001
914.093	0.500467
923.736	0.506437
933.378	0.511431
943.02	0.517699
952.663	0.523913
962.305	0.530563
971.947	0.536262
981.59	0.541651
991.232	0.545121
1000.87	0.550041
1010.52	0.558921
1020.16	0.564329
1029.8	0.571829
1039.44	0.576102
1049.09	0.577813
1058.73	0.579453
1068.37	0.582105
1078.01	0.584512
1087.65	0.588854
1097.3	0.59074
1106.94	0.590953
1116.58	0.591553
1126.22	0.593469
1135.87	0.598368
1145.51	0.60214
1155.15	0.601347
1164.79	0.600162
1174.44	0.599858
1184.08	0.600917
1193.72	0.603882
1203.36	0.606766
1213.01	0.60796
1222.65	0.610275
1232.29	0.61195
1241.93	0.614839
1251.58	0.616912
1261.22	0.619686
1270.86	0.622645
1280.5	0.627147
1290.14	0.629313
1299.79	0.632474
1309.43	0.635246
1319.07	0.637556
1328.71	0.640076
1338.36	0.643869
1348	0.647458
1357.64	0.651571
1367.28	0.65535
1376.92	0.658955
1386.57	0.661451
1396.21	0.664933
1405.85	0.668331
1415.49	0.67216
1425.14	0.675349
1434.78	0.67889
1444.42	0.681899
1454.06	0.683957
1463.71	0.685367
1473.35	0.686819
1482.99	0.689622
1492.63	0.692592
1502.28	0.696134
1511.92	0.699611
1521.56	0.704126
1531.2	0.708031
1540.85	0.711329
1550.49	0.715121
1560.13	0.718157
1569.77	0.721668
1579.41	0.725009
1589.06	0.728101
1598.7	0.731857
1608.34	0.734953
1617.98	0.737269
1627.63	0.739585
1637.27	0.742
1646.91	0.743089
1656.55	0.74559
1666.19	0.747378
1675.84	0.749997
1685.48	0.753034
1695.12	0.755979
1704.77	0.759462
1714.41	0.762569
1724.05	0.764778
1733.69	0.765644
1743.33	0.765933
1752.98	0.766745
1762.62	0.769653
1772.26	0.77189
1781.9	0.77429
1791.55	0.776781
1801.19	0.778926
1810.83	0.781386
1820.47	0.783697
1830.12	0.785453
1839.76	0.787904
1849.4	0.790675
1859.04	0.792616
1868.68	0.796193
1878.33	0.797744
1887.97	0.80151
1897.61	0.803874
1907.25	0.80738
1916.9	0.80902
1926.54	0.812084
1936.18	0.814797
1945.82	0.81497
1955.46	0.814396
1965.11	0.820285
1974.75	0.819365
1984.39	0.823308
1994.04	0.827071
2003.68	0.82649
2013.32	0.830662
2022.96	0.833933
2032.6	0.839324
2042.25	0.84179
2051.89	0.848405
2061.53	0.849422
2071.17	0.853892
2080.82	0.859541
2090.46	0.861937
2100.1	0.866269
2109.74	0.868434
2119.39	0.871695
2129.03	0.875719
2138.67	0.875487
2148.31	0.877699
2157.95	0.876289
2167.6	0.880765
2177.24	0.881877
2186.88	0.885128
2196.52	0.892348
2206.17	0.89333
2215.81	0.896274
2225.45	0.897165
2235.09	0.903575
2244.74	0.906192
2254.38	0.910448
2264.02	0.91229
2273.66	0.918122
2283.3	0.919513
2292.95	0.922544
2302.59	0.927192
2312.23	0.92645
2321.87	0.928819
2331.52	0.930745
2341.16	0.933372
2350.8	0.937066
2360.44	0.936623
2370.09	0.942549
2379.73	0.945069
2389.37	0.949086
2399.01	0.949441
2408.66	0.952612
2418.3	0.955346
2427.94	0.957099
2437.58	0.95842
2447.22	0.961701
2456.87	0.96509
2466.51	0.967398
2476.15	0.971898
2485.79	0.974283
2495.44	0.976983
2505.08	0.979457
2514.72	0.982095
2524.36	0.985248
2534.01	0.986218
2543.65	0.989671
2553.29	0.992444
2562.93	0.995085
2572.57	0.996491
2582.22	0.999604
2591.86	1.00291
2601.5	1.00568
2611.14	1.00857
2620.79	1.013
2630.43	1.01541
2640.07	1.01842
2649.71	1.02191
2659.36	1.02465
2669	1.02781
2678.64	1.03014
2688.28	1.03165
2697.93	1.03511
2707.57	1.03771
2717.21	1.04129
2726.85	1.04401
2736.49	1.04611
2746.14	1.0483
2755.78	1.05034
2765.42	1.05323
2775.06	1.05506
2784.71	1.05849
2794.35	1.06055
2803.99	1.0635
2813.63	1.06618
2823.28	1.06876
2832.92	1.07224
2842.56	1.07601
2852.2	1.07899
2861.84	1.07977
2871.49	1.08191
2881.13	1.08426
2890.77	1.0878
2900.41	1.08993
2910.06	1.09455
2919.7	1.09653
2929.34	1.09746
2938.98	1.09805
2948.62	1.1
2958.27	1.10074
2967.91	1.09958
2977.55	1.10159
2987.2	1.10352
2996.84	1.10627
3006.48	1.10919
3016.12	1.11055
3025.76	1.1122
3035.41	1.11676
3045.05	1.11888
3054.69	1.12099
3064.33	1.12239
3073.98	1.12601
3083.62	1.12723
3093.26	1.12919
3102.9	1.13065
3112.55	1.13432
3122.19	1.13629
3131.83	1.13653
3141.47	1.14112
3151.11	1.14206
3160.76	1.14364
3170.4	1.1479
3180.04	1.14909
3189.68	1.14978
3199.33	1.15371
3208.97	1.15565
3218.61	1.15831
3228.25	1.1605
3237.9	1.16038
3247.54	1.16441
3257.18	1.16585
3266.82	1.17031
3276.47	1.17007
3286.11	1.17483
3295.75	1.17564
3305.39	1.17714
3315.03	1.17961
3324.68	1.18131
3334.32	1.18434
3343.96	1.18351
3353.6	1.18473
3363.25	1.18783
3372.89	1.18788
3382.53	1.18861
3392.17	1.19165
3401.82	1.19322
3411.46	1.193
3421.1	1.19606
3430.74	1.19516
3440.39	1.19834
3450.03	1.19888
3459.67	1.20046
3469.31	1.20126
3478.95	1.20226
3488.6	1.2044
3498.24	1.20524
3507.88	1.20468
3517.52	1.20688
3527.17	1.20641
3536.81	1.20917
3546.45	1.20801
3556.09	1.20776
3565.74	1.21111
3575.38	1.21349
3585.02	1.21316
3594.66	1.21417
3604.3	1.21637
3613.95	1.21407
3623.59	1.21904
3633.23	1.22179
3642.87	1.22201
3652.52	1.2236
3662.16	1.22633
3671.8	1.22873
3681.44	1.23349
3691.09	1.23207
3700.73	1.23382
3710.37	1.2362
3720.01	1.23576
3729.66	1.23791
3739.3	1.24128
3748.94	1.24552
3758.58	1.24557
3768.22	1.24873
3777.87	1.24901
3787.51	1.25203
3797.15	1.25302
3806.79	1.25639
3816.44	1.25698
3826.08	1.25848
3835.72	1.26217
3845.36	1.26466
3855.01	1.26692
3864.65	1.26728
3874.29	1.27105
3883.93	1.27093
3893.57	1.27415
3903.22	1.27536
3912.86	1.27717
3922.5	1.27816
3932.14	1.27908
3941.79	1.28306
3951.43	1.28418
3961.07	1.28744
3970.71	1.28989
3980.36	1.29153
3990	1.29121
3999.64	1.29475
