Measurement: Infrared, Infrared Data Processed
Mineral: Kernite
Rruff sample: R050661
Ideal chemistry: Na_2_B_4_O_6_(OH)_2_3H_2_O
Locality: Boron, Kern County, California, USA
Source: Marcus Origlieri
Description: Colorless cleavage fragment
x	intensity
374.123	0.013281
383.765	0.0243265
393.407	0.0268074
403.05	0.0223649
412.692	0.0220248
422.334	0.0257192
431.976	0.0274999
441.619	0.0292272
451.261	0.0396509
460.904	0.0537682
470.546	0.0419891
480.188	0.0541352
489.83	0.0713893
499.473	0.0724665
509.115	0.060813
518.758	0.0663045
528.4	0.0739354
538.042	0.0851331
547.684	0.113256
557.327	0.0992308
566.969	0.08787
576.611	0.078803
586.254	0.0867124
595.896	0.0793528
605.538	0.103397
615.181	0.140432
624.823	0.11971
634.466	0.123543
644.108	0.13833
653.75	0.140281
663.393	0.136707
673.035	0.146772
682.677	0.203283
692.319	0.189435
701.962	0.114094
711.604	0.092882
721.246	0.127622
730.889	0.110483
740.531	0.11512
750.173	0.0990148
759.816	0.106756
769.458	0.107978
779.101	0.102585
788.743	0.10218
798.385	0.112479
808.028	0.130795
817.67	0.153223
827.312	0.17074
836.955	0.147853
846.597	0.128828
856.239	0.13325
865.881	0.148317
875.524	0.159806
885.166	0.138081
894.808	0.115922
904.451	0.116132
914.093	0.145387
923.736	0.20605
933.378	0.291592
943.02	0.369364
952.663	0.375961
962.305	0.344412
971.947	0.367345
981.59	0.293387
991.232	0.284366
1000.87	0.320429
1010.52	0.362631
1020.16	0.318191
1029.8	0.26135
1039.44	0.213353
1049.09	0.1729
1058.73	0.143241
1068.37	0.12554
1078.01	0.110933
1087.65	0.0928466
1097.3	0.0717903
1106.94	0.0538264
1116.58	0.0445038
1126.22	0.0404751
1135.87	0.0411736
1145.51	0.0471119
1155.15	0.0501311
1164.79	0.0482455
1174.44	0.0388702
1184.08	0.0303666
1193.72	0.027457
1203.36	0.0260636
1213.01	0.0255353
1222.65	0.0260344
1232.29	0.0271815
1241.93	0.0290532
1251.58	0.0317547
1261.22	0.0358895
1270.86	0.0419912
1280.5	0.051395
1290.14	0.067162
1299.79	0.0975
1309.43	0.160564
1319.07	0.240706
1328.71	0.308502
1338.36	0.317309
1348	0.322278
1357.64	0.313639
1367.28	0.276679
1376.92	0.241604
1386.57	0.174593
1396.21	0.125012
1405.85	0.0974617
1415.49	0.0784687
1425.14	0.0730208
1434.78	0.0554546
1444.42	0.0389605
1454.06	0.0330903
1463.71	0.0337303
1473.35	0.0294025
1482.99	0.0280124
1492.63	0.0204384
1502.28	0.0163122
1511.92	0.0142828
1521.56	0.013001
1531.2	0.013029
1540.85	0.0119133
1550.49	0.0129834
1560.13	0.0122191
1569.77	0.0134758
1579.41	0.0143832
1589.06	0.0150759
1598.7	0.0158898
1608.34	0.0163517
1617.98	0.0165659
1627.63	0.016871
1637.27	0.0170794
1646.91	0.017429
1656.55	0.0184873
1666.19	0.0191256
1675.84	0.0196558
1685.48	0.0205189
1695.12	0.0234089
1704.77	0.025717
1714.41	0.0198809
1724.05	0.0140959
1733.69	0.0101461
1743.33	0.00930398
1752.98	0.00904038
1762.62	0.00918716
1772.26	0.00816175
1781.9	0.00847837
1791.55	0.00824684
1801.19	0.00781464
1810.83	0.00817288
1820.47	0.007922
1830.12	0.00736486
1839.76	0.00786974
1849.4	0.00706781
1859.04	0.00707086
1868.68	0.00675433
1878.33	0.00637139
1887.97	0.00613317
1897.61	0.00636951
1907.25	0.00608166
1916.9	0.00586106
1926.54	0.00552221
1936.18	0.00490715
1945.82	0.00469459
1955.46	0.00414027
1965.11	0.00305609
1974.75	0.00231239
1984.39	0.00409977
1994.04	0.00418841
2003.68	0.00308263
2013.32	0.00302402
2022.96	0.000638078
2032.6	0.00344566
2042.25	0.00472359
2051.89	0.00673903
2061.53	0.0076563
2071.17	0.00829678
2080.82	0.00931826
2090.46	0.0089741
2100.1	0.0101942
2109.74	0.0112562
2119.39	0.011171
2129.03	0.0101188
2138.67	0.010547
2148.31	0.00950395
2157.95	0.00903251
2167.6	0.0123963
2177.24	0.0123014
2186.88	0.013205
2196.52	0.0140092
2206.17	0.0143934
2215.81	0.0144279
2225.45	0.0137278
2235.09	0.0147281
2244.74	0.0159753
2254.38	0.0152029
2264.02	0.0156357
2273.66	0.0162424
2283.3	0.0169246
2292.95	0.0162239
2302.59	0.0159515
2312.23	0.0163016
2321.87	0.0172423
2331.52	0.0163032
2341.16	0.0162957
2350.8	0.0159864
2360.44	0.0160155
2370.09	0.0150959
2379.73	0.0146016
2389.37	0.0144148
2399.01	0.013635
2408.66	0.0146643
2418.3	0.0143803
2427.94	0.0141494
2437.58	0.014579
2447.22	0.0149888
2456.87	0.0146929
2466.51	0.0150002
2476.15	0.0141804
2485.79	0.014576
2495.44	0.0141112
2505.08	0.01434
2514.72	0.0138731
2524.36	0.014306
2534.01	0.0141434
2543.65	0.0144574
2553.29	0.0143564
2562.93	0.0146526
2572.57	0.0145627
2582.22	0.0146094
2591.86	0.015125
2601.5	0.0150471
2611.14	0.0153447
2620.79	0.0152268
2630.43	0.0151494
2640.07	0.0155813
2649.71	0.0158726
2659.36	0.0158684
2669	0.0156272
2678.64	0.0164842
2688.28	0.016661
2697.93	0.0173865
2707.57	0.0181275
2717.21	0.0189254
2726.85	0.0199943
2736.49	0.0210153
2746.14	0.021663
2755.78	0.0227143
2765.42	0.0240729
2775.06	0.0250106
2784.71	0.0262075
2794.35	0.0272729
2803.99	0.0284062
2813.63	0.0296015
2823.28	0.0304343
2832.92	0.0315489
2842.56	0.0310347
2852.2	0.029591
2861.84	0.0330761
2871.49	0.0346909
2881.13	0.0370805
2890.77	0.0386812
2900.41	0.0401242
2910.06	0.041252
2919.7	0.0407189
2929.34	0.0449526
2938.98	0.0517654
2948.62	0.0563754
2958.27	0.0609648
2967.91	0.0667595
2977.55	0.0704812
2987.2	0.073267
2996.84	0.0734507
3006.48	0.0710775
3016.12	0.0689738
3025.76	0.0649709
3035.41	0.0624601
3045.05	0.0604282
3054.69	0.0596058
3064.33	0.0591684
3073.98	0.0593245
3083.62	0.0600725
3093.26	0.0610834
3102.9	0.0633509
3112.55	0.0655426
3122.19	0.0675251
3131.83	0.0701498
3141.47	0.0731433
3151.11	0.0761735
3160.76	0.0803403
3170.4	0.0838054
3180.04	0.0886873
3189.68	0.093905
3199.33	0.0998024
3208.97	0.106282
3218.61	0.115062
3228.25	0.123699
3237.9	0.134097
3247.54	0.145897
3257.18	0.156071
3266.82	0.161558
3276.47	0.163536
3286.11	0.163866
3295.75	0.162893
3305.39	0.158795
3315.03	0.152769
3324.68	0.146828
3334.32	0.139811
3343.96	0.133666
3353.6	0.125819
3363.25	0.117159
3372.89	0.109573
3382.53	0.102329
3392.17	0.0987296
3401.82	0.0973953
3411.46	0.0967098
3421.1	0.094868
3430.74	0.0867208
3440.39	0.0783994
3450.03	0.0695455
3459.67	0.0611181
3469.31	0.0551239
3478.95	0.050365
3488.6	0.0474126
3498.24	0.0441322
3507.88	0.0417688
3517.52	0.042198
3527.17	0.0491395
3536.81	0.072198
3546.45	0.094774
3556.09	0.0703675
3565.74	0.0369687
3575.38	0.0250345
3585.02	0.0203621
3594.66	0.0169418
3604.3	0.0150996
3613.95	0.0136996
3623.59	0.0123501
3633.23	0.0112042
3642.87	0.00970078
3652.52	0.00990558
3662.16	0.00861736
3671.8	0.00846465
3681.44	0.0100556
3691.09	0.00833575
3700.73	0.00920195
3710.37	0.00895628
3720.01	0.00925127
3729.66	0.00988574
3739.3	0.00954846
3748.94	0.00777305
3758.58	0.00927028
3768.22	0.00959533
3777.87	0.0104451
3787.51	0.0115039
3797.15	0.0107727
3806.79	0.0107049
3816.44	0.00942836
3826.08	0.0105753
3835.72	0.0110314
3845.36	0.0107467
3855.01	0.00921588
3864.65	0.0105944
3874.29	0.0122125
3883.93	0.0106359
3893.57	0.0114237
3903.22	0.0119153
3912.86	0.0121267
3922.5	0.0118383
3932.14	0.0130425
3941.79	0.0123216
3951.43	0.0131199
3961.07	0.0130051
3970.71	0.0137817
3980.36	0.0122266
3990	0.0130667
3999.64	0.012933
