Measurement: Infrared, Infrared Data Processed
Mineral: Kirschsteinite
Rruff sample: R070266
Ideal chemistry: CaFe^2+^SiO_4_
Locality: Dolores mine, Pastrana, Mazarrón, Murcia, Spain
Source: Michael Scott
Description: Aggregate of vitreous brown rhombic prismatic crystals with conchoidal fracture
Measured chemistry: (Ca_0.95_Mn_0.02_Mg_0.02_Na_0.01_)_Σ=1_(Fe^2+^_0.83_Mg_0.16_Fe^3+^_0.01_)_Σ=1_Si_1.00_O_4_; Fe^2+^ and Fe^3+^ by charge balance
x	intensity
374.123	0.0846879
383.765	0.0714807
393.407	0.051024
403.05	0.0500091
412.692	0.049106
422.334	0.0511084
431.976	0.0505386
441.619	0.0525582
451.261	0.0611503
460.904	0.0665419
470.546	0.0724472
480.188	0.0804778
489.83	0.0866246
499.473	0.0884216
509.115	0.08783
518.758	0.0766775
528.4	0.0613602
538.042	0.0494612
547.684	0.0478305
557.327	0.0531303
566.969	0.0572345
576.611	0.0537093
586.254	0.0433308
595.896	0.0305056
605.538	0.0221291
615.181	0.0195275
624.823	0.0186847
634.466	0.0182942
644.108	0.0183598
653.75	0.0186296
663.393	0.0189787
673.035	0.0193165
682.677	0.0199345
692.319	0.0204387
701.962	0.0211478
711.604	0.0219453
721.246	0.0226469
730.889	0.0244483
740.531	0.0257657
750.173	0.02806
759.816	0.030482
769.458	0.0341321
779.101	0.0387605
788.743	0.0449959
798.385	0.0539916
808.028	0.0656484
817.67	0.0805802
827.312	0.0819998
836.955	0.0804021
846.597	0.0964808
856.239	0.112045
865.881	0.124662
875.524	0.129843
885.166	0.123415
894.808	0.112103
904.451	0.102754
914.093	0.0968049
923.736	0.0855314
933.378	0.0785113
943.02	0.0797171
952.663	0.067922
962.305	0.062301
971.947	0.0578494
981.59	0.0513213
991.232	0.043281
1000.87	0.0351057
1010.52	0.0279079
1020.16	0.0223497
1029.8	0.0196245
1039.44	0.0184503
1049.09	0.0177348
1058.73	0.0170197
1068.37	0.0158426
1078.01	0.0144971
1087.65	0.0135367
1097.3	0.012651
1106.94	0.0116782
1116.58	0.0111264
1126.22	0.0107506
1135.87	0.0100131
1145.51	0.00988879
1155.15	0.00941855
1164.79	0.00909165
1174.44	0.0088463
1184.08	0.00862277
1193.72	0.00836814
1203.36	0.00806023
1213.01	0.00801821
1222.65	0.00791661
1232.29	0.00793552
1241.93	0.00788088
1251.58	0.00811213
1261.22	0.00829763
1270.86	0.00841308
1280.5	0.00848749
1290.14	0.0087357
1299.79	0.0088654
1309.43	0.00887759
1319.07	0.00896321
1328.71	0.00915603
1338.36	0.00937104
1348	0.00957996
1357.64	0.00984734
1367.28	0.0100217
1376.92	0.0104903
1386.57	0.0109931
1396.21	0.0113098
1405.85	0.012218
1415.49	0.0123258
1425.14	0.0128314
1434.78	0.0128694
1444.42	0.0133437
1454.06	0.0132037
1463.71	0.0132641
1473.35	0.0129452
1482.99	0.0130902
1492.63	0.0129334
1502.28	0.0124731
1511.92	0.0121479
1521.56	0.0115097
1531.2	0.0115853
1540.85	0.0110844
1550.49	0.0115144
1560.13	0.0107801
1569.77	0.0112815
1579.41	0.0116096
1589.06	0.0115869
1598.7	0.0115517
1608.34	0.0115908
1617.98	0.0112519
1627.63	0.0117082
1637.27	0.0115695
1646.91	0.011377
1656.55	0.0116834
1666.19	0.0116024
1675.84	0.0112812
1685.48	0.0113796
1695.12	0.0112704
1704.77	0.0115083
1714.41	0.0113868
1724.05	0.0116428
1733.69	0.0112359
1743.33	0.01158
1752.98	0.0117112
1762.62	0.0118903
1772.26	0.0116966
1781.9	0.0119206
1791.55	0.0117846
1801.19	0.0118081
1810.83	0.011823
1820.47	0.0121304
1830.12	0.0121177
1839.76	0.0120861
1849.4	0.0122195
1859.04	0.0123786
1868.68	0.0122942
1878.33	0.0122126
1887.97	0.0121207
1897.61	0.0124265
1907.25	0.0125129
1916.9	0.0122213
1926.54	0.012154
1936.18	0.0124031
1945.82	0.0126046
1955.46	0.013013
1965.11	0.0120714
1974.75	0.0127563
1984.39	0.0127315
1994.04	0.0130613
2003.68	0.0122273
2013.32	0.0122865
2022.96	0.013717
2032.6	0.0130424
2042.25	0.0142525
2051.89	0.0149481
2061.53	0.0145789
2071.17	0.0151649
2080.82	0.0149105
2090.46	0.0145733
2100.1	0.0149864
2109.74	0.0146249
2119.39	0.0148165
2129.03	0.0147364
2138.67	0.0148081
2148.31	0.0156288
2157.95	0.0164124
2167.6	0.0166822
2177.24	0.0164249
2186.88	0.0150067
2196.52	0.0158941
2206.17	0.0150165
2215.81	0.0156583
2225.45	0.0162959
2235.09	0.0159237
2244.74	0.0155345
2254.38	0.0154856
2264.02	0.0167297
2273.66	0.0164789
2283.3	0.0166185
2292.95	0.0160128
2302.59	0.0161398
2312.23	0.0160103
2321.87	0.0159587
2331.52	0.0153544
2341.16	0.0156
2350.8	0.0159087
2360.44	0.0155558
2370.09	0.0155463
2379.73	0.0158931
2389.37	0.0162703
2399.01	0.0165813
2408.66	0.0163376
2418.3	0.0162755
2427.94	0.0167413
2437.58	0.0160694
2447.22	0.0160869
2456.87	0.0163668
2466.51	0.0169114
2476.15	0.0162737
2485.79	0.0164831
2495.44	0.0171931
2505.08	0.0168538
2514.72	0.0178332
2524.36	0.0174668
2534.01	0.0172063
2543.65	0.0173198
2553.29	0.0173885
2562.93	0.0172501
2572.57	0.0169686
2582.22	0.0174278
2591.86	0.0169175
2601.5	0.0173268
2611.14	0.0175082
2620.79	0.0176659
2630.43	0.0178577
2640.07	0.0173566
2649.71	0.0175445
2659.36	0.0174708
2669	0.0174507
2678.64	0.0174247
2688.28	0.0177415
2697.93	0.0173176
2707.57	0.0176694
2717.21	0.0174832
2726.85	0.0175483
2736.49	0.0178767
2746.14	0.0177058
2755.78	0.0174679
2765.42	0.0177929
2775.06	0.0179363
2784.71	0.0178604
2794.35	0.0177957
2803.99	0.0183269
2813.63	0.0179995
2823.28	0.0182597
2832.92	0.0183155
2842.56	0.0188384
2852.2	0.0187183
2861.84	0.018776
2871.49	0.0185748
2881.13	0.0191352
2890.77	0.0188445
2900.41	0.0188208
2910.06	0.0193
2919.7	0.0194031
2929.34	0.0197103
2938.98	0.0194412
2948.62	0.0189618
2958.27	0.0189391
2967.91	0.0190511
2977.55	0.0193126
2987.2	0.019134
2996.84	0.0195441
3006.48	0.0190423
3016.12	0.0200493
3025.76	0.0193847
3035.41	0.0191537
3045.05	0.0192685
3054.69	0.0195889
3064.33	0.0196684
3073.98	0.0193933
3083.62	0.0201068
3093.26	0.0194358
3102.9	0.0203074
3112.55	0.020027
3122.19	0.0199184
3131.83	0.0200788
3141.47	0.020178
3151.11	0.0203553
3160.76	0.0204382
3170.4	0.0201736
3180.04	0.0204402
3189.68	0.0208024
3199.33	0.0200335
3208.97	0.0201898
3218.61	0.0204785
3228.25	0.0205717
3237.9	0.020737
3247.54	0.0209556
3257.18	0.021148
3266.82	0.0216466
3276.47	0.0219137
3286.11	0.0212439
3295.75	0.0216915
3305.39	0.0211477
3315.03	0.021128
3324.68	0.0211192
3334.32	0.0212873
3343.96	0.0212028
3353.6	0.0213618
3363.25	0.0218501
3372.89	0.0213702
3382.53	0.0214478
3392.17	0.0220011
3401.82	0.0212758
3411.46	0.0218166
3421.1	0.0218601
3430.74	0.0210001
3440.39	0.0217148
3450.03	0.0215423
3459.67	0.0216113
3469.31	0.0215758
3478.95	0.0219306
3488.6	0.0225573
3498.24	0.0226856
3507.88	0.0230155
3517.52	0.0221173
3527.17	0.0221474
3536.81	0.0222406
3546.45	0.0224639
3556.09	0.0214851
3565.74	0.0219854
3575.38	0.0222975
3585.02	0.0216529
3594.66	0.0227352
3604.3	0.0215888
3613.95	0.0221496
3623.59	0.0211099
3633.23	0.0217076
3642.87	0.0225626
3652.52	0.0219241
3662.16	0.0214065
3671.8	0.0219128
3681.44	0.0215513
3691.09	0.0218902
3700.73	0.0218598
3710.37	0.0224019
3720.01	0.0208886
3729.66	0.0229769
3739.3	0.0221402
3748.94	0.0218136
3758.58	0.0219703
3768.22	0.0225726
3777.87	0.0222391
3787.51	0.0224844
3797.15	0.0216608
3806.79	0.0222923
3816.44	0.0209717
3826.08	0.0224186
3835.72	0.0217255
3845.36	0.0224699
3855.01	0.0214538
3864.65	0.0220345
3874.29	0.0218745
3883.93	0.020888
3893.57	0.0228023
3903.22	0.0218334
3912.86	0.022581
3922.5	0.0222293
3932.14	0.0224379
3941.79	0.0225868
3951.43	0.0218088
3961.07	0.0234966
3970.71	0.0225683
3980.36	0.0233608
3990	0.0226622
3999.64	0.0227693
