Measurement: Infrared, Infrared Data Processed
Mineral: Kornerupine
Rruff sample: R050214
Ideal chemistry: (Mg,Fe^2+^,Al,[box])_10_(Si,Al,B)_5_O_21_(OH,F)_2_
Locality: Sri Lanka
Source: Jibamitra Ganguly
Description: Water-worn single crystal fragment
Measured chemistry: (Mg_3.63_[box]_0.21_Fe^2+^_0.14_Na_0.02_)_4_Al_6.00_(Si_2.44_Al_1.97_B_0.59_)_5_O_21_(OH) ;   B and Li not measured; B estimated by charge balance
x	intensity
50.1401	0.0116512
52.0686	0.013341
53.9971	0.0116396
55.9255	0.0185284
57.854	0.0291569
59.7825	0.0320915
61.7109	0.0264447
63.6394	0.0270543
65.5679	0.0265065
67.4963	0.0229932
69.4248	0.022433
71.3533	0.0255631
73.2817	0.0289671
75.2102	0.0289778
77.1387	0.0313155
79.0671	0.0351928
80.9956	0.0350176
82.9241	0.0352596
84.8525	0.0359415
86.781	0.035701
88.7095	0.0355353
90.6379	0.0348744
92.5664	0.0342913
94.4948	0.0352924
96.4233	0.0374275
98.3518	0.0375786
100.28	0.0364852
102.209	0.0374842
104.137	0.0385087
106.066	0.0396775
107.994	0.0400498
109.923	0.0396824
111.851	0.0402076
113.779	0.0411639
115.708	0.0420175
117.636	0.0438727
119.565	0.045108
121.493	0.0459594
123.422	0.0465247
125.35	0.0476458
127.279	0.0486268
129.207	0.0502209
131.136	0.0514225
133.064	0.0524297
134.993	0.053296
136.921	0.0552037
138.85	0.0554468
140.778	0.0563821
142.707	0.0581793
144.635	0.0593675
146.563	0.0593138
148.492	0.060509
150.42	0.0622182
152.349	0.0628653
154.277	0.0628992
156.206	0.0645325
158.134	0.0664982
160.063	0.0679491
161.991	0.0687512
163.92	0.0698747
165.848	0.0705992
167.777	0.0715671
169.705	0.0727534
171.633	0.0742999
173.562	0.0739497
175.49	0.0737737
177.419	0.0743355
179.347	0.0744861
181.276	0.0731115
183.204	0.0719749
185.133	0.0715406
187.061	0.0718783
188.99	0.0720222
190.918	0.0724739
192.847	0.0734761
194.775	0.0742353
196.704	0.0746445
198.632	0.0757261
200.56	0.0767994
202.489	0.0778005
204.417	0.0780346
206.346	0.0783647
208.274	0.0783648
210.203	0.0780634
212.131	0.0775618
214.06	0.0772703
215.988	0.077018
217.917	0.0773649
219.845	0.0773387
221.774	0.0771938
223.702	0.0774043
225.631	0.0783415
227.559	0.0789443
229.488	0.0797163
231.416	0.0807333
233.344	0.0811973
235.273	0.0812397
237.201	0.0821121
239.13	0.0836841
241.058	0.0849305
242.987	0.0859149
244.915	0.0870769
246.844	0.0881259
248.772	0.0888469
250.701	0.0893049
252.629	0.0900752
254.558	0.0904053
256.486	0.0903092
258.414	0.0898955
260.343	0.0898301
262.271	0.0897363
264.2	0.0895607
266.128	0.0899342
268.057	0.0912224
269.985	0.0920987
271.914	0.0928378
273.842	0.0936085
275.771	0.0945382
277.699	0.0953033
279.628	0.0962798
281.556	0.0972965
283.485	0.098152
285.413	0.0987228
287.341	0.0995076
289.27	0.100411
291.198	0.101328
293.127	0.10217
295.055	0.103023
296.984	0.103517
298.912	0.10459
300.841	0.105291
302.769	0.105898
304.698	0.106493
306.626	0.107537
308.555	0.108633
310.483	0.109325
312.411	0.10949
314.34	0.109778
316.269	0.109893
318.197	0.110284
320.125	0.110802
322.054	0.111405
323.982	0.111571
325.911	0.111988
327.839	0.112461
329.768	0.112656
331.696	0.112819
333.625	0.113574
335.553	0.114223
337.482	0.114733
339.41	0.114966
341.339	0.115311
343.267	0.11593
345.195	0.116518
347.124	0.116911
349.052	0.117704
350.981	0.118451
352.909	0.119273
354.838	0.11976
356.766	0.120217
358.695	0.121355
360.623	0.122267
362.552	0.122835
364.48	0.123471
366.409	0.1239
368.337	0.124293
370.265	0.124936
372.194	0.125563
374.122	0.126351
376.051	0.127263
377.979	0.127728
379.908	0.128431
381.836	0.128873
383.765	0.129169
385.693	0.129143
387.622	0.129007
389.55	0.128632
391.479	0.128113
393.407	0.127226
395.336	0.126305
397.264	0.12559
399.192	0.125156
401.121	0.124453
403.049	0.124201
404.978	0.123982
406.906	0.123615
408.835	0.122726
410.763	0.121596
412.692	0.120415
414.62	0.119469
416.549	0.118947
418.477	0.118044
420.406	0.116927
422.334	0.116485
424.262	0.11637
426.191	0.116244
428.12	0.116189
430.048	0.11666
431.976	0.117135
433.905	0.117747
435.833	0.118366
437.762	0.118672
439.69	0.118846
441.619	0.119182
443.547	0.119499
445.476	0.119489
447.404	0.119754
449.333	0.120325
451.261	0.120343
453.19	0.119825
455.118	0.119162
457.046	0.118295
458.975	0.117408
460.903	0.116591
462.832	0.115519
464.76	0.114742
466.689	0.114801
468.617	0.115011
470.546	0.115114
472.474	0.11531
474.403	0.116127
476.331	0.117253
478.26	0.118353
480.188	0.119232
482.116	0.119166
484.045	0.118565
485.974	0.117915
487.902	0.116492
489.83	0.114751
491.759	0.113146
493.687	0.111058
495.616	0.109381
497.544	0.108534
499.473	0.107934
501.401	0.107266
503.33	0.106897
505.258	0.107437
507.187	0.107934
509.115	0.10753
511.043	0.107034
512.972	0.106571
514.9	0.105826
516.829	0.104585
518.757	0.102996
520.686	0.101142
522.614	0.099399
524.543	0.0976086
526.471	0.0957194
528.4	0.0936256
530.328	0.0922199
532.257	0.0914617
534.185	0.091366
536.114	0.0921005
538.042	0.0927929
539.971	0.0931665
541.899	0.0944318
543.827	0.0956757
545.756	0.0962789
547.684	0.0969183
549.613	0.0972335
551.541	0.0975485
553.47	0.098332
555.398	0.0992193
557.327	0.100202
559.255	0.101372
561.184	0.10258
563.112	0.103799
565.041	0.104926
566.969	0.106576
568.898	0.108422
570.826	0.109951
572.755	0.110922
574.683	0.111364
576.611	0.111817
578.54	0.111954
580.468	0.111718
582.397	0.111892
584.325	0.112134
586.254	0.11257
588.182	0.113003
590.111	0.113326
592.039	0.113783
593.968	0.114317
595.896	0.114899
597.824	0.114901
599.753	0.114988
601.682	0.115209
603.61	0.115037
605.538	0.114679
607.467	0.115207
609.395	0.115715
611.324	0.115936
613.252	0.116012
615.181	0.115812
617.109	0.115498
619.038	0.114561
620.966	0.113563
622.894	0.113387
624.823	0.113586
626.751	0.114222
628.68	0.115165
630.608	0.115471
632.537	0.115566
634.465	0.115817
636.394	0.115807
638.322	0.115859
640.251	0.115812
642.179	0.115478
644.108	0.115011
646.036	0.11416
647.965	0.112923
649.893	0.11181
651.822	0.110757
653.75	0.109465
655.678	0.107874
657.607	0.106091
659.535	0.10428
661.464	0.102246
663.392	0.100083
665.321	0.0977334
667.249	0.0948911
669.178	0.0925467
671.106	0.090571
673.035	0.0891374
674.963	0.0879885
676.892	0.0872189
678.82	0.0874471
680.749	0.0889378
682.677	0.0908332
684.606	0.0922332
686.534	0.0941282
688.462	0.0971147
690.391	0.100519
692.319	0.10483
694.248	0.109112
696.176	0.113288
698.105	0.118225
700.033	0.121972
