Measurement: Infrared, Infrared Data Processed
Mineral: Kovdorskite
Rruff sample: R050505
Ideal chemistry: Mg_2_PO_4_(OH)3H_2_O
Locality: Kovdor Massif, Kola Peninsula, Russia
Source: Bob Downs
Description: Colorless prismatic crystals, slightly pink in color when viewed in bulk. This sample was used in the structural study by Morrison et al (2012)
Measured chemistry: Mg_2.00_P_1.00_O_4_(OH)Â·2.67H_2_O ; trace amounts of Mn; H_2_O estimated by difference
x	intensity
399.193	0.161794
408.835	0.204559
418.477	0.218198
428.12	0.170113
437.762	0.156611
447.404	0.216517
457.047	0.173144
466.689	0.129068
476.331	0.111173
485.974	0.10969
495.616	0.0960876
505.258	0.0998982
514.901	0.126113
524.543	0.154286
534.185	0.172674
543.828	0.218077
553.47	0.241366
563.112	0.215892
572.755	0.171723
582.397	0.138194
592.039	0.113571
601.682	0.0892239
611.324	0.0807961
620.966	0.0809666
630.609	0.0874356
640.251	0.10134
649.893	0.105075
659.536	0.0968285
669.178	0.0860082
678.82	0.0770011
688.463	0.0711953
698.105	0.0684617
707.747	0.0689557
717.39	0.0722854
727.032	0.0742517
736.674	0.071726
746.317	0.073063
755.959	0.0796695
765.601	0.0875156
775.244	0.092694
784.886	0.0909635
794.528	0.085025
804.171	0.0806701
813.813	0.077594
823.455	0.0725488
833.098	0.0634965
842.74	0.0541061
852.382	0.0470782
862.025	0.0433198
871.667	0.0422599
881.309	0.040947
890.952	0.0384715
900.594	0.0362605
910.236	0.0355382
919.879	0.0373461
929.521	0.0430286
939.163	0.0536359
948.806	0.0691012
958.448	0.0816976
968.09	0.0931186
977.733	0.112868
987.375	0.14913
997.017	0.206828
1006.66	0.265998
1016.3	0.278637
1025.94	0.258855
1035.59	0.232986
1045.23	0.19351
1054.87	0.144728
1064.51	0.113385
1074.16	0.0778438
1083.8	0.0440821
1093.44	0.0248961
1103.08	0.0163228
1112.72	0.0128228
1122.37	0.0108271
1132.01	0.00919924
1141.65	0.00777278
1151.3	0.00682897
1160.94	0.00638423
1170.58	0.00549614
1180.22	0.00542497
1189.86	0.00522288
1199.51	0.00544124
1209.15	0.00536771
1218.79	0.00527484
1228.43	0.00552993
1238.08	0.00523385
1247.72	0.00560822
1257.36	0.00599108
1267	0.00626788
1276.64	0.00647306
1286.29	0.00644994
1295.93	0.00632595
1305.57	0.00667859
1315.21	0.00663043
1324.86	0.00701986
1334.5	0.00668355
1344.14	0.00699177
1353.78	0.00738359
1363.43	0.00733477
1373.07	0.00749872
1382.71	0.00816382
1392.35	0.0087836
1401.99	0.00953396
1411.64	0.00947554
1421.28	0.00983485
1430.92	0.0102072
1440.57	0.0106361
1450.21	0.0106623
1459.85	0.0108305
1469.49	0.0114508
1479.13	0.0121955
1488.78	0.0132135
1498.42	0.0135465
1508.06	0.0140767
1517.7	0.014548
1527.35	0.0152052
1536.99	0.0163387
1546.63	0.017107
1556.27	0.0182948
1565.91	0.0193126
1575.56	0.0212751
1585.2	0.0236264
1594.84	0.0269251
1604.48	0.0299324
1614.13	0.0338123
1623.77	0.037468
1633.41	0.0410273
1643.05	0.0436847
1652.7	0.0452545
1662.34	0.0427961
1671.98	0.0372687
1681.62	0.0318923
1691.27	0.0274095
1700.91	0.0239246
1710.55	0.0198772
1720.19	0.0176436
1729.84	0.0161579
1739.48	0.0134358
1749.12	0.0124714
1758.76	0.0120698
1768.4	0.0126744
1778.05	0.0114573
1787.69	0.0109089
1797.33	0.0108222
1806.97	0.0106389
1816.62	0.0103443
1826.26	0.0104172
1835.9	0.0104312
1845.54	0.00928142
1855.18	0.010079
1864.83	0.0092837
1874.47	0.00880679
1884.11	0.00924629
1893.75	0.00775999
1903.4	0.00809209
1913.04	0.0072685
1922.68	0.0062829
1932.32	0.00751275
1941.97	0.00809363
1951.61	0.00689354
1961.25	0.00424493
1970.89	0.00191796
1980.54	0.00735172
1990.18	0.0045547
1999.82	0.00372089
2009.46	0.00292897
2019.11	0.00364363
2028.75	0.00251683
2038.39	0.00134953
2048.03	0.00422907
2057.67	0.0067715
2067.32	0.00536994
2076.96	0.00711591
2086.6	0.0105312
2096.24	0.00800024
2105.89	0.00875011
2115.53	0.0109574
2125.17	0.00961252
2134.81	0.00629203
2144.45	0.0090601
2154.1	0.00795409
2163.74	0.0141615
2173.38	0.00927423
2183.02	0.0103553
2192.67	0.0133712
2202.31	0.0128373
2211.95	0.0145789
2221.59	0.0150778
2231.24	0.0167269
2240.88	0.0171235
2250.52	0.0178699
2260.16	0.0174217
2269.8	0.0181102
2279.45	0.0201352
2289.09	0.0208338
2298.73	0.0209495
2308.38	0.0218589
2318.02	0.0229641
2327.66	0.0229056
2337.3	0.0233226
2346.94	0.0228201
2356.59	0.0239617
2366.23	0.0239882
2375.87	0.0239984
2385.51	0.0225785
2395.16	0.0229679
2404.8	0.0246681
2414.44	0.0233254
2424.08	0.0235908
2433.72	0.0242283
2443.37	0.0243506
2453.01	0.023341
2462.65	0.0244305
2472.29	0.0235948
2481.94	0.0250611
2491.58	0.023546
2501.22	0.0240884
2510.86	0.0270924
2520.51	0.0243928
2530.15	0.0252594
2539.79	0.0249754
2549.43	0.0267967
2559.07	0.0268393
2568.72	0.0267263
2578.36	0.02767
2588	0.0282212
2597.64	0.027331
2607.29	0.0288364
2616.93	0.0292223
2626.57	0.0298025
2636.21	0.0319949
2645.86	0.0318286
2655.5	0.0325096
2665.14	0.0330597
2674.78	0.0340701
2684.43	0.0349121
2694.07	0.0364945
2703.71	0.036535
2713.35	0.0371177
2722.99	0.0392161
2732.64	0.0395373
2742.28	0.0402147
2751.92	0.0431106
2761.56	0.0429109
2771.21	0.0451364
2780.85	0.044871
2790.49	0.0466518
2800.13	0.0476431
2809.78	0.050294
2819.42	0.0516619
2829.06	0.0525201
2838.7	0.0541549
2848.34	0.0538939
2857.99	0.0557963
2867.63	0.0568069
2877.27	0.0594575
2886.91	0.0597757
2896.56	0.0611512
2906.2	0.0631234
2915.84	0.0648978
2925.48	0.0650458
2935.13	0.0656015
2944.77	0.0669723
2954.41	0.0667007
2964.05	0.0685551
2973.7	0.0686805
2983.34	0.0678136
2992.98	0.0693999
3002.62	0.0668765
3012.26	0.0678927
3021.91	0.0677959
3031.55	0.0658523
3041.19	0.0667489
3050.83	0.0652236
3060.48	0.0666421
3070.12	0.0631899
3079.76	0.0636091
3089.4	0.0628777
3099.05	0.0651137
3108.69	0.0632866
3118.33	0.0676303
3127.97	0.0679931
3137.61	0.0683905
3147.26	0.0728791
3156.9	0.0756479
3166.54	0.0833024
3176.18	0.0888419
3185.83	0.0960748
3195.47	0.100709
3205.11	0.101597
3214.75	0.101559
3224.4	0.0930111
3234.04	0.0892321
3243.68	0.0826108
3253.32	0.0776374
3262.97	0.0766283
3272.61	0.0724036
3282.25	0.0719508
3291.89	0.0689638
3301.53	0.0703576
3311.18	0.0687579
3320.82	0.0667653
3330.46	0.0689964
3340.1	0.0698435
3349.75	0.0700029
3359.39	0.0739033
3369.03	0.0732034
3378.67	0.0748187
3388.32	0.078289
3397.96	0.0778378
3407.6	0.0765379
3417.24	0.0709317
3426.89	0.0705518
3436.53	0.0664577
3446.17	0.0645711
3455.81	0.0598311
3465.45	0.0551454
3475.1	0.0521961
3484.74	0.0457694
3494.38	0.0439316
3504.02	0.0401974
3513.67	0.0356455
3523.31	0.0332508
3532.95	0.0298477
3542.59	0.0289048
3552.24	0.0229095
3561.88	0.0266645
3571.52	0.017793
3581.16	0.0222944
3590.8	0.0182823
3600.45	0.015555
3610.09	0.0129094
3619.73	0.0114123
3629.37	0.0118512
3639.02	0.0106116
3648.66	0.013113
3658.3	0.0154824
3667.94	0.0155896
3677.59	0.0183205
3687.23	0.0458087
3696.87	0.0296725
3706.51	0.0148951
3716.16	0.00987424
3725.8	0.0146771
3735.44	0.0123169
3745.08	0.0135143
3754.72	0.0140544
3764.37	0.00793463
3774.01	0.00744273
3783.65	0.00995634
3793.29	0.0127593
3802.94	0.0157138
3812.58	0.0146523
3822.22	0.0139576
3831.86	0.013244
3841.51	0.00992866
3851.15	0.0154831
3860.79	0.0129096
3870.43	0.00945072
3880.07	0.011439
3889.72	0.0155693
3899.36	0.0125473
3909	0.0122929
3918.64	0.0165363
3928.29	0.0173229
3937.93	0.0177682
3947.57	0.0157012
3957.21	0.0124949
3966.86	0.0110197
3976.5	0.0161724
3986.14	0.0129646
3995.78	0.0128942
