Measurement: Infrared, Infrared Data Processed
Mineral: Krohnkite
Rruff sample: R050604
Ideal chemistry: Na_2_Cu^2+^(S^6+^O_4_)_2_2H_2_O
Locality: Chuquicamata, Chile
Source: University of Arizona Mineral Museum
Description: Green elongated prismatic crystals with orange natrojarosite and minor colorless leightonite
Measured chemistry: Na_2.00_Cu_1.00_(S_1.00_O_4_)_2_Â·2H_2_O
x	intensity
399.193	0.0175662
408.835	0.0188392
418.477	0.021643
428.12	0.0278426
437.762	0.0390398
447.404	0.0760325
457.047	0.0697968
466.689	0.0972907
476.331	0.121798
485.974	0.0621208
495.616	0.0678492
505.258	0.0919133
514.901	0.109668
524.543	0.118756
534.185	0.137284
543.828	0.160805
553.47	0.188068
563.112	0.20849
572.755	0.208579
582.397	0.187889
592.039	0.185516
601.682	0.202387
611.324	0.0915958
620.966	0.06813
630.609	0.095186
640.251	0.184504
649.893	0.180055
659.536	0.0641408
669.178	0.051284
678.82	0.0550575
688.463	0.0621543
698.105	0.0723944
707.747	0.0865581
717.39	0.107324
727.032	0.134153
736.674	0.162757
746.317	0.189057
755.959	0.208717
765.601	0.213372
775.244	0.198842
784.886	0.167982
794.528	0.131018
804.171	0.101373
813.813	0.0832765
823.455	0.0744936
833.098	0.0703007
842.74	0.0689587
852.382	0.0676203
862.025	0.0662984
871.667	0.0656764
881.309	0.0676523
890.952	0.0728368
900.594	0.069094
910.236	0.0587075
919.879	0.0550586
929.521	0.0565749
939.163	0.0617752
948.806	0.0707015
958.448	0.0841182
968.09	0.105959
977.733	0.150231
987.375	0.284285
997.017	0.172778
1006.66	0.162224
1016.3	0.253295
1025.94	0.36475
1035.59	0.497719
1045.23	0.563087
1054.87	0.48259
1064.51	0.393982
1074.16	0.43418
1083.8	0.408367
1093.44	0.351161
1103.08	0.309664
1112.72	0.253655
1122.37	0.200333
1132.01	0.259123
1141.65	0.406118
1151.3	0.337956
1160.94	0.253493
1170.58	0.21353
1180.22	0.184414
1189.86	0.16234
1199.51	0.124113
1209.15	0.0776379
1218.79	0.040995
1228.43	0.0189518
1238.08	0.0108569
1247.72	0.00831558
1257.36	0.00700438
1267	0.00606959
1276.64	0.00546296
1286.29	0.00509831
1295.93	0.00491898
1305.57	0.0047456
1315.21	0.00496323
1324.86	0.00525021
1334.5	0.00559311
1344.14	0.0058083
1353.78	0.00620047
1363.43	0.00689356
1373.07	0.00756283
1382.71	0.00816658
1392.35	0.00897131
1401.99	0.00975747
1411.64	0.0105966
1421.28	0.0112318
1430.92	0.0120166
1440.57	0.0126775
1450.21	0.0134018
1459.85	0.0144515
1469.49	0.0150247
1479.13	0.0157052
1488.78	0.0165141
1498.42	0.0171442
1508.06	0.0178975
1517.7	0.0181927
1527.35	0.018711
1536.99	0.0194018
1546.63	0.0205038
1556.27	0.0226728
1565.91	0.0252391
1575.56	0.028826
1585.2	0.0313742
1594.84	0.0334987
1604.48	0.0346844
1614.13	0.0349391
1623.77	0.0343637
1633.41	0.0336343
1643.05	0.0327062
1652.7	0.0326996
1662.34	0.0306916
1671.98	0.0299521
1681.62	0.0294494
1691.27	0.0286718
1700.91	0.028469
1710.55	0.0264305
1720.19	0.0233345
1729.84	0.0189617
1739.48	0.0143055
1749.12	0.0101584
1758.76	0.00767509
1768.4	0.00611076
1778.05	0.00531805
1787.69	0.00471586
1797.33	0.00450497
1806.97	0.00431279
1816.62	0.00380592
1826.26	0.00395092
1835.9	0.00366928
1845.54	0.00355854
1855.18	0.00341744
1864.83	0.00345214
1874.47	0.00310405
1884.11	0.00218592
1893.75	0.00309565
1903.4	0.00255709
1913.04	0.0032135
1922.68	0.00242481
1932.32	0.00274019
1941.97	0.00274879
1951.61	0.00251766
1961.25	0.00270006
1970.89	0.00186047
1980.54	0.00261421
1990.18	0.00234522
1999.82	0.00499721
2009.46	0.00570665
2019.11	0.00430703
2028.75	0.00530169
2038.39	0.00590291
2048.03	0.00318851
2057.67	0.00255166
2067.32	0.00125905
2076.96	0.000930552
2086.6	0.00084845
2096.24	0.00128967
2105.89	0.00306554
2115.53	0.00419309
2125.17	0.00422758
2134.81	0.00161353
2144.45	0.00117293
2154.1	0.00119217
2163.74	0.00242842
2173.38	0.00342615
2183.02	0.00424363
2192.67	0.00265355
2202.31	0.0051186
2211.95	0.00496657
2221.59	0.00604726
2231.24	0.00598676
2240.88	0.00828166
2250.52	0.00849361
2260.16	0.0090764
2269.8	0.00909476
2279.45	0.00881146
2289.09	0.00844179
2298.73	0.00864436
2308.38	0.00898308
2318.02	0.00995666
2327.66	0.00982016
2337.3	0.00981965
2346.94	0.010035
2356.59	0.00980356
2366.23	0.0093007
2375.87	0.00978364
2385.51	0.0095989
2395.16	0.00997309
2404.8	0.00932469
2414.44	0.0108513
2424.08	0.0113353
2433.72	0.012067
2443.37	0.0124846
2453.01	0.0130933
2462.65	0.0132173
2472.29	0.0132224
2481.94	0.0135831
2491.58	0.0135257
2501.22	0.013952
2510.86	0.0139746
2520.51	0.0140486
2530.15	0.0144346
2539.79	0.0143071
2549.43	0.0147911
2559.07	0.0155424
2568.72	0.0155371
2578.36	0.0162546
2588	0.0169447
2597.64	0.0175438
2607.29	0.0179606
2616.93	0.0180742
2626.57	0.0184899
2636.21	0.0188449
2645.86	0.019075
2655.5	0.0193049
2665.14	0.019725
2674.78	0.020018
2684.43	0.0209666
2694.07	0.021843
2703.71	0.0229988
2713.35	0.0240346
2722.99	0.0254247
2732.64	0.026912
2742.28	0.028691
2751.92	0.0299296
2761.56	0.0315854
2771.21	0.0335599
2780.85	0.0355746
2790.49	0.0376703
2800.13	0.039735
2809.78	0.042272
2819.42	0.045097
2829.06	0.0481973
2838.7	0.0516486
2848.34	0.0549605
2857.99	0.0591432
2867.63	0.0639866
2877.27	0.0690183
2886.91	0.0742863
2896.56	0.0798439
2906.2	0.0861782
2915.84	0.0923542
2925.48	0.0994935
2935.13	0.107633
2944.77	0.11659
2954.41	0.125287
2964.05	0.135546
2973.7	0.145146
2983.34	0.15483
2992.98	0.164662
3002.62	0.175493
3012.26	0.185938
3021.91	0.19726
3031.55	0.21141
3041.19	0.225758
3050.83	0.243353
3060.48	0.258913
3070.12	0.267661
3079.76	0.268001
3089.4	0.258922
3099.05	0.245614
3108.69	0.233361
3118.33	0.222116
3127.97	0.212793
3137.61	0.202905
3147.26	0.191998
3156.9	0.18153
3166.54	0.170305
3176.18	0.160691
3185.83	0.151446
3195.47	0.143147
3205.11	0.13549
3214.75	0.130226
3224.4	0.125925
3234.04	0.120898
3243.68	0.116462
3253.32	0.111976
3262.97	0.106795
3272.61	0.101685
3282.25	0.0958169
3291.89	0.0909514
3301.53	0.085624
3311.18	0.0800606
3320.82	0.0753702
3330.46	0.0696416
3340.1	0.0662181
3349.75	0.0615128
3359.39	0.0574543
3369.03	0.0531691
3378.67	0.0486411
3388.32	0.0443122
3397.96	0.0386427
3407.6	0.0350248
3417.24	0.0296345
3426.89	0.0265332
3436.53	0.0228385
3446.17	0.0192081
3455.81	0.0177611
3465.45	0.0149526
3475.1	0.0129755
3484.74	0.010948
3494.38	0.0092491
3504.02	0.00809847
3513.67	0.00670558
3523.31	0.00567082
3532.95	0.00476019
3542.59	0.00474055
3552.24	0.00314174
3561.88	0.00258498
3571.52	0.00219458
3581.16	0.00195885
3590.8	0.00171921
3600.45	0.00195519
3610.09	0.00117905
3619.73	0.000812938
3629.37	0.0020498
3639.02	0.00177241
3648.66	0.00183315
3658.3	0.000282807
3667.94	0.00195262
3677.59	0.00170588
3687.23	0.00263253
3696.87	0.00113853
3706.51	0.00121317
3716.16	0.00148265
3725.8	0.00147579
3735.44	0.00314295
3745.08	0.00325477
3754.72	0.00167063
3764.37	0.00174738
3774.01	0.00192778
3783.65	0.00198701
3793.29	0.00174204
3802.94	0.00202032
3812.58	0.00218051
3822.22	0.00346304
3831.86	0.00288844
3841.51	0.00212821
3851.15	0.00298695
3860.79	0.00225704
3870.43	0.00275841
3880.07	0.00291981
3889.72	0.00282716
3899.36	0.00221579
3909	0.00267425
3918.64	0.00237703
3928.29	0.00292331
3937.93	0.002714
3947.57	0.00321066
3957.21	0.00223405
3966.86	0.00367373
3976.5	0.00321281
3986.14	0.00312564
3995.78	0.00276681
