Measurement: Infrared, Infrared Data Processed
Mineral: Kurnakovite
Rruff sample: R050393
Ideal chemistry: MgB_3_O_3_(OH)_5_5H_2_O
Locality: Kramer deposit, Boron, Kern County, California, USA
Source: Marcus Origlieri
Description: Colorless to gray cleavage fragment
Measured chemistry: Mg_1.00_B_3_O_3_(OH)_5_·5H_2_O ; = lighter phase. The darker phase: (Mg_0.97_Al_0.02_[box]_0.01_)_Σ=1_B_3_O_3_(OH)_5_·5H_2_O ; B not measured but estimated by stoichiometry
x	intensity
399.193	0.0956326
408.835	0.0930962
418.477	0.0811887
428.12	0.0719658
437.762	0.0850336
447.404	0.102453
457.047	0.11754
466.689	0.128665
476.331	0.112979
485.974	0.110354
495.616	0.10793
505.258	0.110264
514.901	0.113369
524.543	0.117732
534.185	0.112236
543.828	0.106369
553.47	0.101026
563.112	0.0997509
572.755	0.110439
582.397	0.11768
592.039	0.121682
601.682	0.129027
611.324	0.134719
620.966	0.138508
630.609	0.139267
640.251	0.143942
649.893	0.152936
659.536	0.14675
669.178	0.123529
678.82	0.117445
688.463	0.121641
698.105	0.129452
707.747	0.13292
717.39	0.133151
727.032	0.132831
736.674	0.139393
746.317	0.137318
755.959	0.130578
765.601	0.120003
775.244	0.110594
784.886	0.106156
794.528	0.110057
804.171	0.128697
813.813	0.141857
823.455	0.134246
833.098	0.131573
842.74	0.138155
852.382	0.142857
862.025	0.140459
871.667	0.138171
881.309	0.130314
890.952	0.125515
900.594	0.111599
910.236	0.0922537
919.879	0.0782604
929.521	0.0779355
939.163	0.0873809
948.806	0.0920158
958.448	0.116528
968.09	0.152085
977.733	0.175194
987.375	0.1808
997.017	0.184626
1006.66	0.189849
1016.3	0.182899
1025.94	0.163321
1035.59	0.145857
1045.23	0.132632
1054.87	0.119058
1064.51	0.104855
1074.16	0.0897181
1083.8	0.0744745
1093.44	0.0690128
1103.08	0.0673255
1112.72	0.0613386
1122.37	0.0563568
1132.01	0.054329
1141.65	0.0549438
1151.3	0.0587907
1160.94	0.0612434
1170.58	0.0550452
1180.22	0.0517664
1189.86	0.0573923
1199.51	0.0712299
1209.15	0.0937867
1218.79	0.106242
1228.43	0.0898468
1238.08	0.0735765
1247.72	0.0726546
1257.36	0.0786053
1267	0.0789561
1276.64	0.0714215
1286.29	0.0670442
1295.93	0.0641758
1305.57	0.0586087
1315.21	0.0602117
1324.86	0.0731977
1334.5	0.1001
1344.14	0.129235
1353.78	0.124049
1363.43	0.0912633
1373.07	0.0787565
1382.71	0.0941572
1392.35	0.108364
1401.99	0.104156
1411.64	0.102532
1421.28	0.089858
1430.92	0.0655739
1440.57	0.0524066
1450.21	0.0557281
1459.85	0.0507854
1469.49	0.0356504
1479.13	0.025559
1488.78	0.021414
1498.42	0.0200445
1508.06	0.0199914
1517.7	0.019912
1527.35	0.0198002
1536.99	0.0202403
1546.63	0.021322
1556.27	0.0215209
1565.91	0.0221164
1575.56	0.0226191
1585.2	0.0233722
1594.84	0.0253255
1604.48	0.0274261
1614.13	0.0297824
1623.77	0.031121
1633.41	0.0321151
1643.05	0.0329586
1652.7	0.0329113
1662.34	0.0332211
1671.98	0.0361509
1681.62	0.0407687
1691.27	0.0350029
1700.91	0.0260832
1710.55	0.0199411
1720.19	0.0177928
1729.84	0.0158401
1739.48	0.014376
1749.12	0.0125973
1758.76	0.0110634
1768.4	0.0110887
1778.05	0.0108409
1787.69	0.00993003
1797.33	0.00963339
1806.97	0.0100044
1816.62	0.00916864
1826.26	0.0100082
1835.9	0.00935361
1845.54	0.00826621
1855.18	0.00949808
1864.83	0.00923595
1874.47	0.00869742
1884.11	0.0085322
1893.75	0.00906499
1903.4	0.00851235
1913.04	0.00770324
1922.68	0.00692547
1932.32	0.00653132
1941.97	0.00587279
1951.61	0.00581743
1961.25	0.00575765
1970.89	0.00339336
1980.54	0.00497686
1990.18	0.00616993
1999.82	0.00565382
2009.46	0.00451223
2019.11	0.00328537
2028.75	0.00375412
2038.39	0.00605367
2048.03	0.00640021
2057.67	0.00680269
2067.32	0.0109115
2076.96	0.00903063
2086.6	0.00937211
2096.24	0.00979896
2105.89	0.00952148
2115.53	0.0096301
2125.17	0.00940833
2134.81	0.00872756
2144.45	0.00606101
2154.1	0.00779034
2163.74	0.0137154
2173.38	0.0103919
2183.02	0.00943935
2192.67	0.00638969
2202.31	0.0116331
2211.95	0.0113297
2221.59	0.0107519
2231.24	0.0141741
2240.88	0.0145897
2250.52	0.0149882
2260.16	0.016025
2269.8	0.0168479
2279.45	0.0169234
2289.09	0.0177837
2298.73	0.0176882
2308.38	0.0193119
2318.02	0.0191118
2327.66	0.0185725
2337.3	0.0193368
2346.94	0.0192707
2356.59	0.0183968
2366.23	0.017574
2375.87	0.0173794
2385.51	0.0166143
2395.16	0.0183679
2404.8	0.0166881
2414.44	0.0174224
2424.08	0.0153663
2433.72	0.0177069
2443.37	0.0173429
2453.01	0.0171084
2462.65	0.0171349
2472.29	0.0169687
2481.94	0.0168006
2491.58	0.0166133
2501.22	0.0179389
2510.86	0.016838
2520.51	0.0175987
2530.15	0.0165157
2539.79	0.0169371
2549.43	0.0172215
2559.07	0.0177409
2568.72	0.0187664
2578.36	0.0178203
2588	0.0195676
2597.64	0.019293
2607.29	0.0191016
2616.93	0.0189768
2626.57	0.0204283
2636.21	0.0201817
2645.86	0.0189932
2655.5	0.0193204
2665.14	0.0195663
2674.78	0.0186577
2684.43	0.0195703
2694.07	0.0190758
2703.71	0.0201308
2713.35	0.0201302
2722.99	0.021584
2732.64	0.0225949
2742.28	0.0238483
2751.92	0.0226234
2761.56	0.0251605
2771.21	0.0249013
2780.85	0.0250211
2790.49	0.0251044
2800.13	0.0269024
2809.78	0.0268129
2819.42	0.0288198
2829.06	0.0286452
2838.7	0.0313341
2848.34	0.0349726
2857.99	0.0344646
2867.63	0.0342272
2877.27	0.0356434
2886.91	0.0401243
2896.56	0.0405248
2906.2	0.0464795
2915.84	0.0513212
2925.48	0.0508487
2935.13	0.0538272
2944.77	0.0558725
2954.41	0.0592418
2964.05	0.0576009
2973.7	0.0566159
2983.34	0.0669366
2992.98	0.07419
3002.62	0.077876
3012.26	0.0828558
3021.91	0.0833377
3031.55	0.086731
3041.19	0.0899359
3050.83	0.08963
3060.48	0.0952468
3070.12	0.0963163
3079.76	0.099342
3089.4	0.104607
3099.05	0.106462
3108.69	0.11188
3118.33	0.116558
3127.97	0.120747
3137.61	0.131826
3147.26	0.136024
3156.9	0.148303
3166.54	0.153634
3176.18	0.164063
3185.83	0.170498
3195.47	0.17738
3205.11	0.185011
3214.75	0.190089
3224.4	0.194771
3234.04	0.19506
3243.68	0.194814
3253.32	0.189701
3262.97	0.180216
3272.61	0.171377
3282.25	0.16766
3291.89	0.163103
3301.53	0.164605
3311.18	0.161782
3320.82	0.163407
3330.46	0.160365
3340.1	0.153521
3349.75	0.148144
3359.39	0.136491
3369.03	0.126701
3378.67	0.11867
3388.32	0.114021
3397.96	0.109181
3407.6	0.103719
3417.24	0.102102
3426.89	0.107517
3436.53	0.113081
3446.17	0.124295
3455.81	0.128129
3465.45	0.119898
3475.1	0.0988936
3484.74	0.0759725
3494.38	0.0604683
3504.02	0.0526795
3513.67	0.0604495
3523.31	0.0730156
3532.95	0.0832877
3542.59	0.0624016
3552.24	0.0634904
3561.88	0.0679594
3571.52	0.044962
3581.16	0.0239759
3590.8	0.0215769
3600.45	0.0163895
3610.09	0.0133741
3619.73	0.0110327
3629.37	0.00791403
3639.02	0.00573253
3648.66	0.00421395
3658.3	0.00762044
3667.94	0.0108108
3677.59	0.00577005
3687.23	0.00238953
3696.87	0.00575199
3706.51	0.00873852
3716.16	0.00719444
3725.8	0.00234096
3735.44	0.00702877
3745.08	0.00311229
3754.72	0.000888399
3764.37	0.00722413
3774.01	0.00667175
3783.65	0.00614257
3793.29	0.00946246
3802.94	0.00800909
3812.58	0.00644581
3822.22	0.00897693
3831.86	0.0063618
3841.51	0.00681203
3851.15	0.00403153
3860.79	0.00638941
3870.43	0.00381854
3880.07	0.00345738
3889.72	0.010029
3899.36	0.00722276
3909	0.00619033
3918.64	0.00223641
3928.29	0.0105315
3937.93	0.0103823
3947.57	0.00602156
3957.21	0.00813743
3966.86	0.00902116
3976.5	0.00789474
3986.14	0.00977881
3995.78	0.00845927
