Measurement: Infrared, Infrared Data Processed
Mineral: Kyanite
Rruff sample: R050450
Ideal chemistry: Al_2_OSiO_4_
Locality: Switzerland
Source: Marcus Origlieri
Description: Blue bladed crystals
Measured chemistry: Al_2.00_OSi_1.00_O_4_
x	intensity
399.193	0.239179
408.835	0.304431
418.477	0.353989
428.12	0.386835
437.762	0.35352
447.404	0.311215
457.047	0.336827
466.689	0.29926
476.331	0.19848
485.974	0.284789
495.616	0.309006
505.258	0.319569
514.901	0.2953
524.543	0.259815
534.185	0.232116
543.828	0.295767
553.47	0.188779
563.112	0.32818
572.755	0.307742
582.397	0.337113
592.039	0.322873
601.682	0.333869
611.324	0.294629
620.966	0.269725
630.609	0.239881
640.251	0.222766
649.893	0.17606
659.536	0.18171
669.178	0.205537
678.82	0.181095
688.463	0.168306
698.105	0.133026
707.747	0.109621
717.39	0.102425
727.032	0.111097
736.674	0.093688
746.317	0.0701263
755.959	0.0501402
765.601	0.0358901
775.244	0.0286253
784.886	0.0273566
794.528	0.0274821
804.171	0.0289755
813.813	0.0317146
823.455	0.0367509
833.098	0.04547
842.74	0.0590546
852.382	0.0834391
862.025	0.127418
871.667	0.207056
881.309	0.277411
890.952	0.301152
900.594	0.286059
910.236	0.27571
919.879	0.334703
929.521	0.395431
939.163	0.368381
948.806	0.315535
958.448	0.272177
968.09	0.242558
977.733	0.214508
987.375	0.193103
997.017	0.189146
1006.66	0.186459
1016.3	0.173261
1025.94	0.149543
1035.59	0.118233
1045.23	0.0910474
1054.87	0.0662446
1064.51	0.0471781
1074.16	0.0355936
1083.8	0.0273605
1093.44	0.0219135
1103.08	0.0186489
1112.72	0.0163971
1122.37	0.014668
1132.01	0.0135411
1141.65	0.0118941
1151.3	0.0108895
1160.94	0.00964891
1170.58	0.00859545
1180.22	0.00768108
1189.86	0.00678536
1199.51	0.00618798
1209.15	0.00552903
1218.79	0.00484674
1228.43	0.0042648
1238.08	0.00397955
1247.72	0.00364828
1257.36	0.00356747
1267	0.0037176
1276.64	0.00375066
1286.29	0.0037393
1295.93	0.00355123
1305.57	0.00371741
1315.21	0.00390776
1324.86	0.00336591
1334.5	0.00347678
1344.14	0.00329342
1353.78	0.00343245
1363.43	0.00331559
1373.07	0.0028466
1382.71	0.00261912
1392.35	0.00306795
1401.99	0.00329336
1411.64	0.0032751
1421.28	0.00385146
1430.92	0.00396634
1440.57	0.00392975
1450.21	0.00352378
1459.85	0.00337158
1469.49	0.00377
1479.13	0.00374815
1488.78	0.00404534
1498.42	0.00448424
1508.06	0.00502015
1517.7	0.00459593
1527.35	0.0044202
1536.99	0.00482933
1546.63	0.00497211
1556.27	0.00544685
1565.91	0.0053852
1575.56	0.00548198
1585.2	0.0053801
1594.84	0.00534141
1604.48	0.00591406
1614.13	0.0060181
1623.77	0.00618582
1633.41	0.00570297
1643.05	0.00622744
1652.7	0.00581535
1662.34	0.00602688
1671.98	0.00606262
1681.62	0.00580609
1691.27	0.00504793
1700.91	0.0050063
1710.55	0.00426051
1720.19	0.00483923
1729.84	0.00358169
1739.48	0.00225104
1749.12	0.00195863
1758.76	0.00394255
1768.4	0.00499267
1778.05	0.00461991
1787.69	0.00496914
1797.33	0.00490886
1806.97	0.00587879
1816.62	0.00501193
1826.26	0.00484521
1835.9	0.00477819
1845.54	0.00460725
1855.18	0.00408832
1864.83	0.00586466
1874.47	0.00447772
1884.11	0.00436882
1893.75	0.00417098
1903.4	0.00418031
1913.04	0.00409382
1922.68	0.0030584
1932.32	0.00203265
1941.97	0.00189078
1951.61	0.000817109
1961.25	0.00146132
1970.89	0.00264902
1980.54	0.00439015
1990.18	0.000929235
1999.82	0.00051123
2009.46	-0.000297303
2019.11	-0.00253009
2028.75	0.0018819
2038.39	-0.000371798
2048.03	0.00417718
2057.67	0.00428495
2067.32	0.00559206
2076.96	0.00520525
2086.6	0.0046541
2096.24	0.00550231
2105.89	0.00646857
2115.53	0.00850155
2125.17	0.00642314
2134.81	0.00221679
2144.45	0.00180212
2154.1	-0.00141634
2163.74	0.00829538
2173.38	0.00750281
2183.02	0.00701413
2192.67	0.0107137
2202.31	0.00767902
2211.95	0.0103864
2221.59	0.0088379
2231.24	0.0072789
2240.88	0.00966708
2250.52	0.00895267
2260.16	0.00916525
2269.8	0.0114236
2279.45	0.0116097
2289.09	0.0113473
2298.73	0.0120621
2308.38	0.0111585
2318.02	0.0111365
2327.66	0.00935948
2337.3	0.00939239
2346.94	0.00970666
2356.59	0.00945129
2366.23	0.00869777
2375.87	0.00936179
2385.51	0.0092831
2395.16	0.0108537
2404.8	0.0105754
2414.44	0.0111864
2424.08	0.0114908
2433.72	0.010563
2443.37	0.0110233
2453.01	0.0116396
2462.65	0.0116147
2472.29	0.0113951
2481.94	0.0119341
2491.58	0.0108894
2501.22	0.0109977
2510.86	0.0117187
2520.51	0.0124017
2530.15	0.0122688
2539.79	0.0129377
2549.43	0.0103251
2559.07	0.0120453
2568.72	0.012099
2578.36	0.0122966
2588	0.0135828
2597.64	0.0123567
2607.29	0.0123687
2616.93	0.0137936
2626.57	0.0126122
2636.21	0.012392
2645.86	0.0125961
2655.5	0.0123897
2665.14	0.0124855
2674.78	0.0124227
2684.43	0.0128468
2694.07	0.0126745
2703.71	0.0130311
2713.35	0.0132122
2722.99	0.0132474
2732.64	0.0130686
2742.28	0.0129274
2751.92	0.0135329
2761.56	0.0128297
2771.21	0.0144936
2780.85	0.013943
2790.49	0.0132557
2800.13	0.0143607
2809.78	0.0128445
2819.42	0.0134291
2829.06	0.0138103
2838.7	0.0141406
2848.34	0.0141776
2857.99	0.0135546
2867.63	0.0140271
2877.27	0.0136031
2886.91	0.0139058
2896.56	0.0139999
2906.2	0.0126689
2915.84	0.01328
2925.48	0.0148711
2935.13	0.0145902
2944.77	0.0162387
2954.41	0.015622
2964.05	0.0148675
2973.7	0.0135294
2983.34	0.0152409
2992.98	0.0147945
3002.62	0.0155837
3012.26	0.016447
3021.91	0.0173854
3031.55	0.0179623
3041.19	0.0169526
3050.83	0.0171659
3060.48	0.018263
3070.12	0.0166943
3079.76	0.0158179
3089.4	0.0180341
3099.05	0.0175305
3108.69	0.0171607
3118.33	0.0189072
3127.97	0.0190913
3137.61	0.0193707
3147.26	0.019102
3156.9	0.0187756
3166.54	0.0206739
3176.18	0.0199728
3185.83	0.0204395
3195.47	0.0207545
3205.11	0.01684
3214.75	0.019564
3224.4	0.0184178
3234.04	0.0186784
3243.68	0.019773
3253.32	0.0200598
3262.97	0.0180121
3272.61	0.0201767
3282.25	0.0216606
3291.89	0.0195754
3301.53	0.0218378
3311.18	0.0198337
3320.82	0.0218323
3330.46	0.022582
3340.1	0.0199438
3349.75	0.0208261
3359.39	0.0221827
3369.03	0.0220621
3378.67	0.020077
3388.32	0.0206944
3397.96	0.0223784
3407.6	0.0185583
3417.24	0.0235863
3426.89	0.0202888
3436.53	0.0250229
3446.17	0.0228589
3455.81	0.0224016
3465.45	0.0202533
3475.1	0.0236513
3484.74	0.0220151
3494.38	0.0242218
3504.02	0.0238077
3513.67	0.0220641
3523.31	0.0204776
3532.95	0.0176478
3542.59	0.0163117
3552.24	0.0210058
3561.88	0.0166745
3571.52	0.0222974
3581.16	0.0210011
3590.8	0.0179049
3600.45	0.0176501
3610.09	0.0174175
3619.73	0.0187222
3629.37	0.0158218
3639.02	0.0195887
3648.66	0.0183886
3658.3	0.0189516
3667.94	0.0202074
3677.59	0.0170898
3687.23	0.0207295
3696.87	0.0113147
3706.51	0.0139097
3716.16	0.0166934
3725.8	0.0128521
3735.44	0.0163747
3745.08	0.0258868
3754.72	0.0200048
3764.37	0.0154098
3774.01	0.018557
3783.65	0.0202714
3793.29	0.018039
3802.94	0.0183221
3812.58	0.0132146
3822.22	0.0225885
3831.86	0.014886
3841.51	0.0146605
3851.15	0.0167821
3860.79	0.0168056
3870.43	0.0173285
3880.07	0.0190563
3889.72	0.0174286
3899.36	0.014191
3909	0.0178439
3918.64	0.0190341
3928.29	0.019113
3937.93	0.0154876
3947.57	0.0178068
3957.21	0.0133191
3966.86	0.0194418
3976.5	0.0127324
3986.14	0.016185
3995.78	0.0193069
