Measurement: Infrared, Infrared Data Processed
Mineral: Lamprophyllite
Rruff sample: R070284
Ideal chemistry: (SrNa)Ti^4+^_2_Na_3_Ti^4+^(Si_2_O_7_)_2_O_2_(OH)_2_
Locality: Lovozero Massif,  Kola Peninsula,  Murmanskaja Oblast',  Northern Region,  Russia
Source: Michael Scott
Description: Stellate groups of transparent brown bladed crystals
Measured chemistry: (Na_2.35_Mn_0.36_Mg_0.17_Ca_0.12_)(Sr_1.08_Na_0.35_K_0.09_Ba_0.01_)(Ti_2.80_Fe_0.26_Al_0.02_)Si_3.87_O_16_[(OH)_1.14_F_0.86_]
x	intensity
374.123	0.114137
383.765	0.119359
393.407	0.121288
403.05	0.122177
412.692	0.115873
422.334	0.103753
431.976	0.0920199
441.619	0.0845986
451.261	0.0810754
460.904	0.0818184
470.546	0.0667443
480.188	0.0516169
489.83	0.0498724
499.473	0.0622496
509.115	0.0691027
518.758	0.0758338
528.4	0.084675
538.042	0.0912768
547.684	0.10041
557.327	0.105735
566.969	0.0976504
576.611	0.0833064
586.254	0.0664124
595.896	0.0510007
605.538	0.0403653
615.181	0.0337423
624.823	0.0322329
634.466	0.033969
644.108	0.0374763
653.75	0.0426214
663.393	0.0487134
673.035	0.0551925
682.677	0.0611037
692.319	0.0652172
701.962	0.065716
711.604	0.0549617
721.246	0.0526313
730.889	0.0614747
740.531	0.0719514
750.173	0.0823746
759.816	0.0917443
769.458	0.100735
779.101	0.109312
788.743	0.11697
798.385	0.123994
808.028	0.13193
817.67	0.141422
827.312	0.152348
836.955	0.162851
846.597	0.17023
856.239	0.171793
865.881	0.177953
875.524	0.174538
885.166	0.163456
894.808	0.160992
904.451	0.169116
914.093	0.176489
923.736	0.177877
933.378	0.17478
943.02	0.168648
952.663	0.157509
962.305	0.141032
971.947	0.117613
981.59	0.0954427
991.232	0.0844457
1000.87	0.0841204
1010.52	0.0805427
1020.16	0.0690311
1029.8	0.0583365
1039.44	0.0514232
1049.09	0.0431101
1058.73	0.0342167
1068.37	0.0262728
1078.01	0.0194865
1087.65	0.0141536
1097.3	0.010365
1106.94	0.00832063
1116.58	0.00678928
1126.22	0.00561052
1135.87	0.004795
1145.51	0.0037575
1155.15	0.00322717
1164.79	0.00273872
1174.44	0.00222593
1184.08	0.00194175
1193.72	0.00166083
1203.36	0.00173049
1213.01	0.0015318
1222.65	0.00152509
1232.29	0.00145612
1241.93	0.00146863
1251.58	0.00159436
1261.22	0.00173004
1270.86	0.00183638
1280.5	0.00190093
1290.14	0.00186712
1299.79	0.00200545
1309.43	0.00222762
1319.07	0.00223766
1328.71	0.00235427
1338.36	0.00245738
1348	0.00288991
1357.64	0.0031931
1367.28	0.00345264
1376.92	0.00371424
1386.57	0.00349001
1396.21	0.00408325
1405.85	0.00449922
1415.49	0.00471768
1425.14	0.00484095
1434.78	0.00439724
1444.42	0.00517909
1454.06	0.00451006
1463.71	0.00451852
1473.35	0.00321722
1482.99	0.00454777
1492.63	0.00443336
1502.28	0.00441539
1511.92	0.004063
1521.56	0.0027435
1531.2	0.00466869
1540.85	0.00255955
1550.49	0.00600948
1560.13	0.00354846
1569.77	0.00577918
1579.41	0.0066457
1589.06	0.00657697
1598.7	0.00641963
1608.34	0.00604996
1617.98	0.0049009
1627.63	0.00600033
1637.27	0.00531706
1646.91	0.00449446
1656.55	0.0055986
1666.19	0.00576868
1675.84	0.00451362
1685.48	0.00313042
1695.12	0.00344356
1704.77	0.00477883
1714.41	0.00442839
1724.05	0.00507297
1733.69	0.00213242
1743.33	0.00350221
1752.98	0.00341597
1762.62	0.00367938
1772.26	0.00283692
1781.9	0.00413811
1791.55	0.00349221
1801.19	0.00419094
1810.83	0.00438109
1820.47	0.00455583
1830.12	0.00406653
1839.76	0.00457724
1849.4	0.00459038
1859.04	0.00502081
1868.68	0.00426638
1878.33	0.00471526
1887.97	0.00470046
1897.61	0.00439241
1907.25	0.00450489
1916.9	0.00451962
1926.54	0.00367859
1936.18	0.00440268
1945.82	0.00394721
1955.46	0.00338716
1965.11	0.00358333
1974.75	0.00279133
1984.39	0.00555561
1994.04	0.00530595
2003.68	0.00310787
2013.32	0.00449209
2022.96	0.00345082
2032.6	0.00398046
2042.25	0.00384782
2051.89	0.00484687
2061.53	0.00428643
2071.17	0.0052681
2080.82	0.00500326
2090.46	0.00511148
2100.1	0.00551231
2109.74	0.00574718
2119.39	0.00492489
2129.03	0.00267085
2138.67	0.00432756
2148.31	0.00313622
2157.95	0.00168478
2167.6	0.00789572
2177.24	0.00592151
2186.88	0.00625281
2196.52	0.00611918
2206.17	0.00573264
2215.81	0.00601383
2225.45	0.00735313
2235.09	0.00629783
2244.74	0.00666503
2254.38	0.00693002
2264.02	0.00709608
2273.66	0.00743385
2283.3	0.00853372
2292.95	0.00814959
2302.59	0.00834606
2312.23	0.00799148
2321.87	0.00900416
2331.52	0.00679154
2341.16	0.00688676
2350.8	0.0071866
2360.44	0.00634551
2370.09	0.00627201
2379.73	0.00709155
2389.37	0.00750229
2399.01	0.00762638
2408.66	0.00722902
2418.3	0.00784406
2427.94	0.00782117
2437.58	0.00810692
2447.22	0.00764554
2456.87	0.00850096
2466.51	0.00814421
2476.15	0.00769385
2485.79	0.00777454
2495.44	0.0077201
2505.08	0.00836036
2514.72	0.00797796
2524.36	0.00814178
2534.01	0.00844931
2543.65	0.00857053
2553.29	0.00831551
2562.93	0.00844805
2572.57	0.00874759
2582.22	0.00878056
2591.86	0.00898376
2601.5	0.00898565
2611.14	0.009299
2620.79	0.00932771
2630.43	0.00969617
2640.07	0.0102011
2649.71	0.00988046
2659.36	0.0100905
2669	0.00915835
2678.64	0.00925496
2688.28	0.0096627
2697.93	0.00970021
2707.57	0.00979022
2717.21	0.0101352
2726.85	0.0105691
2736.49	0.010375
2746.14	0.0105038
2755.78	0.0106886
2765.42	0.0111065
2775.06	0.0112488
2784.71	0.0110989
2794.35	0.0112967
2803.99	0.0113183
2813.63	0.0118688
2823.28	0.0123487
2832.92	0.0125608
2842.56	0.0134702
2852.2	0.0143868
2861.84	0.0144324
2871.49	0.0143797
2881.13	0.0142679
2890.77	0.0150607
2900.41	0.0155306
2910.06	0.0159261
2919.7	0.0179
2929.34	0.0180961
2938.98	0.0160839
2948.62	0.0158665
2958.27	0.0164467
2967.91	0.0153549
2977.55	0.0144771
2987.2	0.0146199
2996.84	0.0142407
3006.48	0.01373
3016.12	0.0140132
3025.76	0.0149073
3035.41	0.015382
3045.05	0.0155437
3054.69	0.0145694
3064.33	0.0155326
3073.98	0.0158624
3083.62	0.0155671
3093.26	0.0164171
3102.9	0.0164535
3112.55	0.0165909
3122.19	0.0173514
3131.83	0.0169318
3141.47	0.017134
3151.11	0.0181143
3160.76	0.0182553
3170.4	0.018496
3180.04	0.0183843
3189.68	0.0189403
3199.33	0.0195575
3208.97	0.0189986
3218.61	0.0193638
3228.25	0.0197345
3237.9	0.0201654
3247.54	0.0200543
3257.18	0.0210923
3266.82	0.0198955
3276.47	0.0204709
3286.11	0.0200551
3295.75	0.0215503
3305.39	0.0215183
3315.03	0.0219922
3324.68	0.021995
3334.32	0.0217788
3343.96	0.0214824
3353.6	0.0215406
3363.25	0.0216944
3372.89	0.0205689
3382.53	0.0213789
3392.17	0.0217253
3401.82	0.0214045
3411.46	0.0208538
3421.1	0.021223
3430.74	0.0197018
3440.39	0.0202433
3450.03	0.0206135
3459.67	0.0200015
3469.31	0.0193778
3478.95	0.0202748
3488.6	0.0200663
3498.24	0.020185
3507.88	0.0199402
3517.52	0.019181
3527.17	0.020096
3536.81	0.0194429
3546.45	0.0191866
3556.09	0.018074
3565.74	0.0181344
3575.38	0.0159726
3585.02	0.0160174
3594.66	0.0157415
3604.3	0.0154627
3613.95	0.0144412
3623.59	0.0141611
3633.23	0.0143786
3642.87	0.0132872
3652.52	0.0125525
3662.16	0.0131506
3671.8	0.0109206
3681.44	0.0113952
3691.09	0.0110861
3700.73	0.0118773
3710.37	0.0108373
3720.01	0.0115476
3729.66	0.0112514
3739.3	0.0119639
3748.94	0.010208
3758.58	0.0111191
3768.22	0.0116234
3777.87	0.0111218
3787.51	0.0115912
3797.15	0.0107271
3806.79	0.0106959
3816.44	0.0096431
3826.08	0.0113003
3835.72	0.0103951
3845.36	0.0115878
3855.01	0.00942575
3864.65	0.0113909
3874.29	0.0121559
3883.93	0.0117041
3893.57	0.0112432
3903.22	0.0113186
3912.86	0.0114917
3922.5	0.0113679
3932.14	0.0110928
3941.79	0.0118987
3951.43	0.0120377
3961.07	0.011014
3970.71	0.0125651
3980.36	0.0114818
3990	0.0115002
3999.64	0.0131539
