Measurement: Infrared, Infrared Data Processed
Mineral: Langite
Rruff sample: R060090
Ideal chemistry: Cu^2+^_4_S^6+^O_4_(OH)_6_2H_2_O
Locality: Allihies mine, County Cork, Ireland
Source: University of Arizona Mineral Museum
Description: Blue skeletal prismatic crystals in snowflake-like groupings, associated with brochantite
Measured chemistry: Cu_4.00_(S_1.00_O_4_)(OH)_6_Â·2H_2_O ; darker phase: Cu_4_SO_4_(OH)_6_ ; lighter phase
x	intensity
399.193	0.252443
408.835	0.329668
418.477	0.278903
428.12	0.210817
437.762	0.172258
447.404	0.158377
457.047	0.189259
466.689	0.204336
476.331	0.204166
485.974	0.198035
495.616	0.133161
505.258	0.150631
514.901	0.120415
524.543	0.0668585
534.185	0.0484814
543.828	0.0470354
553.47	0.0523328
563.112	0.0564499
572.755	0.0675175
582.397	0.110803
592.039	0.360837
601.682	0.267347
611.324	0.105097
620.966	0.0901153
630.609	0.114897
640.251	0.106187
649.893	0.0908298
659.536	0.0662876
669.178	0.05805
678.82	0.0572381
688.463	0.0611077
698.105	0.0690232
707.747	0.084743
717.39	0.123204
727.032	0.198095
736.674	0.177857
746.317	0.121934
755.959	0.118695
765.601	0.146255
775.244	0.173898
784.886	0.157617
794.528	0.125748
804.171	0.116336
813.813	0.132101
823.455	0.17505
833.098	0.243889
842.74	0.324271
852.382	0.297274
862.025	0.303367
871.667	0.300418
881.309	0.238405
890.952	0.196846
900.594	0.158122
910.236	0.123956
919.879	0.112355
929.521	0.121876
939.163	0.142373
948.806	0.122649
958.448	0.0812786
968.09	0.0740708
977.733	0.0921467
987.375	0.117923
997.017	0.0943757
1006.66	0.0711884
1016.3	0.0644615
1025.94	0.0642747
1035.59	0.0675037
1045.23	0.0770902
1054.87	0.0980853
1064.51	0.143078
1074.16	0.23329
1083.8	0.374145
1093.44	0.277811
1103.08	0.227517
1112.72	0.269849
1122.37	0.246455
1132.01	0.179495
1141.65	0.104351
1151.3	0.0391348
1160.94	0.0213198
1170.58	0.0146401
1180.22	0.0117224
1189.86	0.0103872
1199.51	0.0100321
1209.15	0.00967065
1218.79	0.00951501
1228.43	0.0088494
1238.08	0.00863147
1247.72	0.00836746
1257.36	0.00840339
1267	0.00851149
1276.64	0.00952055
1286.29	0.00913485
1295.93	0.00911657
1305.57	0.00911808
1315.21	0.00956158
1324.86	0.0100764
1334.5	0.0106839
1344.14	0.0108086
1353.78	0.0117693
1363.43	0.0133187
1373.07	0.0127346
1382.71	0.0116737
1392.35	0.011368
1401.99	0.0117184
1411.64	0.0124555
1421.28	0.0133469
1430.92	0.0132248
1440.57	0.0128754
1450.21	0.0126636
1459.85	0.0129122
1469.49	0.0129122
1479.13	0.0126951
1488.78	0.0128562
1498.42	0.0130723
1508.06	0.0131649
1517.7	0.0133675
1527.35	0.0138891
1536.99	0.0147116
1546.63	0.0159667
1556.27	0.0156261
1565.91	0.0156521
1575.56	0.0157199
1585.2	0.0163974
1594.84	0.0165192
1604.48	0.0163297
1614.13	0.0165319
1623.77	0.0168036
1633.41	0.0173082
1643.05	0.0178487
1652.7	0.0179526
1662.34	0.0196074
1671.98	0.0207666
1681.62	0.0198609
1691.27	0.018528
1700.91	0.017917
1710.55	0.0186163
1720.19	0.018859
1729.84	0.0195962
1739.48	0.01828
1749.12	0.017506
1758.76	0.0174313
1768.4	0.017591
1778.05	0.0179605
1787.69	0.0181667
1797.33	0.0182137
1806.97	0.0185052
1816.62	0.0181714
1826.26	0.0185224
1835.9	0.018537
1845.54	0.0183735
1855.18	0.0187287
1864.83	0.0178022
1874.47	0.0172752
1884.11	0.0171391
1893.75	0.0178816
1903.4	0.0178414
1913.04	0.0185848
1922.68	0.0183469
1932.32	0.0190336
1941.97	0.0182469
1951.61	0.0188462
1961.25	0.0199247
1970.89	0.0197662
1980.54	0.0217813
1990.18	0.0202435
1999.82	0.0204792
2009.46	0.0219409
2019.11	0.0213684
2028.75	0.0221469
2038.39	0.0222045
2048.03	0.0210893
2057.67	0.0217535
2067.32	0.020768
2076.96	0.0205822
2086.6	0.020301
2096.24	0.019533
2105.89	0.0200701
2115.53	0.0187946
2125.17	0.017382
2134.81	0.0153987
2144.45	0.0148602
2154.1	0.0130698
2163.74	0.0166878
2173.38	0.0141017
2183.02	0.0156105
2192.67	0.0169428
2202.31	0.0178116
2211.95	0.0168908
2221.59	0.0161739
2231.24	0.0161631
2240.88	0.0165513
2250.52	0.0160884
2260.16	0.0168196
2269.8	0.0173366
2279.45	0.0184279
2289.09	0.0187713
2298.73	0.0180352
2308.38	0.0186123
2318.02	0.018701
2327.66	0.0179384
2337.3	0.0174049
2346.94	0.0179921
2356.59	0.0176181
2366.23	0.0175454
2375.87	0.0180918
2385.51	0.0185259
2395.16	0.0189679
2404.8	0.0186771
2414.44	0.0200178
2424.08	0.0197545
2433.72	0.0194333
2443.37	0.0203069
2453.01	0.0203586
2462.65	0.0200461
2472.29	0.0205234
2481.94	0.0204808
2491.58	0.0209772
2501.22	0.0211164
2510.86	0.0217579
2520.51	0.0217904
2530.15	0.0220126
2539.79	0.0219422
2549.43	0.0222614
2559.07	0.0220447
2568.72	0.0228154
2578.36	0.0232399
2588	0.0232524
2597.64	0.0238681
2607.29	0.0240589
2616.93	0.0244001
2626.57	0.0245567
2636.21	0.0251029
2645.86	0.024839
2655.5	0.0251966
2665.14	0.0248095
2674.78	0.0247962
2684.43	0.0251432
2694.07	0.0256601
2703.71	0.0258969
2713.35	0.0259935
2722.99	0.0263056
2732.64	0.0268539
2742.28	0.0272194
2751.92	0.0276657
2761.56	0.0278472
2771.21	0.0280578
2780.85	0.0285065
2790.49	0.0287277
2800.13	0.0292698
2809.78	0.0299972
2819.42	0.0306508
2829.06	0.0312184
2838.7	0.0321485
2848.34	0.0329092
2857.99	0.0337366
2867.63	0.0337869
2877.27	0.0340537
2886.91	0.0345421
2896.56	0.0358653
2906.2	0.0370159
2915.84	0.0384648
2925.48	0.0398312
2935.13	0.0387262
2944.77	0.038324
2954.41	0.0395843
2964.05	0.0398966
2973.7	0.0392687
2983.34	0.0392531
2992.98	0.0403189
3002.62	0.041546
3012.26	0.0427476
3021.91	0.0433937
3031.55	0.0447559
3041.19	0.0462966
3050.83	0.0475753
3060.48	0.0494781
3070.12	0.0512358
3079.76	0.0534472
3089.4	0.0553667
3099.05	0.057906
3108.69	0.0598902
3118.33	0.061937
3127.97	0.0644957
3137.61	0.0675571
3147.26	0.0706688
3156.9	0.0747479
3166.54	0.0796621
3176.18	0.0838927
3185.83	0.0878886
3195.47	0.0912383
3205.11	0.0947354
3214.75	0.0989898
3224.4	0.104807
3234.04	0.111353
3243.68	0.121303
3253.32	0.133744
3262.97	0.145838
3272.61	0.148344
3282.25	0.138444
3291.89	0.130437
3301.53	0.12489
3311.18	0.123749
3320.82	0.126029
3330.46	0.133218
3340.1	0.147732
3349.75	0.174191
3359.39	0.216491
3369.03	0.259779
3378.67	0.308378
3388.32	0.300796
3397.96	0.261506
3407.6	0.225998
3417.24	0.161322
3426.89	0.115505
3436.53	0.0956499
3446.17	0.0851678
3455.81	0.0786747
3465.45	0.0723505
3475.1	0.0690682
3484.74	0.0652117
3494.38	0.0612525
3504.02	0.0587454
3513.67	0.0559645
3523.31	0.0543727
3532.95	0.0556103
3542.59	0.0609688
3552.24	0.0810411
3561.88	0.145053
3571.52	0.101064
3581.16	0.101949
3590.8	0.121901
3600.45	0.0346752
3610.09	0.0249681
3619.73	0.0234802
3629.37	0.0215104
3639.02	0.0216994
3648.66	0.0213144
3658.3	0.0212635
3667.94	0.0213505
3677.59	0.0211595
3687.23	0.0211191
3696.87	0.0214107
3706.51	0.0212265
3716.16	0.0220213
3725.8	0.0223447
3735.44	0.023171
3745.08	0.0220411
3754.72	0.0216883
3764.37	0.0233313
3774.01	0.0235086
3783.65	0.0232988
3793.29	0.0235474
3802.94	0.0237721
3812.58	0.0233794
3822.22	0.024525
3831.86	0.0245102
3841.51	0.0241273
3851.15	0.0239428
3860.79	0.0246888
3870.43	0.0243505
3880.07	0.0244658
3889.72	0.0244025
3899.36	0.0249592
3909	0.0256923
3918.64	0.0256739
3928.29	0.0254765
3937.93	0.0247981
3947.57	0.0253033
3957.21	0.0257932
3966.86	0.0259346
3976.5	0.0268471
3986.14	0.0261572
3995.78	0.0270724
