Measurement: Infrared, Infrared Data Processed
Mineral: Lazulite
Rruff sample: R050269
Ideal chemistry: MgAl_2_(PO_4_)_2_(OH)_2_
Locality: Horsjoberg, Varmland, Sweden
Source: Marcus Origlieri
Description: Deep-blue indistinct crystals
Measured chemistry: (Mg_0.69_Fe_0.25_Mn_0.01_)Al_2.00_(P_1.00_O_4_)_2_(OH)_2_
x	intensity
50.1401	0.00334817
52.0686	0.00174177
53.9971	0.00546373
55.9255	0.010752
57.854	0.0139356
59.7825	0.00909505
61.7109	0.00506322
63.6394	0.0073355
65.5679	0.0103712
67.4963	0.00992509
69.4248	0.00937782
71.3533	0.010092
73.2817	0.0106399
75.2102	0.0103656
77.1387	0.0102679
79.0671	0.0106423
80.9956	0.0124933
82.9241	0.0132083
84.8525	0.0134119
86.781	0.0136392
88.7095	0.0147989
90.6379	0.0144017
92.5664	0.0143788
94.4948	0.0155741
96.4233	0.0160046
98.3518	0.0165636
100.28	0.0171764
102.209	0.0176414
104.137	0.0181271
106.066	0.0184244
107.994	0.018908
109.923	0.0193387
111.851	0.0198383
113.779	0.0205413
115.708	0.0211781
117.636	0.0213191
119.565	0.0213437
121.493	0.021631
123.422	0.0220679
125.35	0.0224066
127.279	0.0228825
129.207	0.0235864
131.136	0.0236695
133.064	0.0240621
134.993	0.0250806
136.921	0.0255981
138.85	0.0258174
140.778	0.0260627
142.707	0.0264046
144.635	0.0266776
146.563	0.0269434
148.492	0.0275618
150.42	0.0283505
152.349	0.0294948
154.277	0.0307806
156.206	0.032167
158.134	0.0329784
160.063	0.032073
161.991	0.0293201
163.92	0.0284297
165.848	0.0294757
167.777	0.0305541
169.705	0.0315304
171.633	0.0323433
173.562	0.0335967
175.49	0.0345797
177.419	0.0342943
179.347	0.0334296
181.276	0.0323011
183.204	0.0312873
185.133	0.0302232
187.061	0.0297069
188.99	0.0298471
190.918	0.0305299
192.847	0.0315696
194.775	0.032197
196.704	0.0324103
198.632	0.0327059
200.56	0.0333423
202.489	0.0341774
204.417	0.034236
206.346	0.0344565
208.274	0.0353551
210.203	0.0358826
212.131	0.0360718
214.06	0.0365583
215.988	0.0366973
217.917	0.0369551
219.845	0.0374715
221.774	0.0380931
223.702	0.0387839
225.631	0.0391739
227.559	0.0398516
229.488	0.0401958
231.416	0.0404123
233.344	0.0404275
235.273	0.0405146
237.201	0.0410824
239.13	0.0417625
241.058	0.0421188
242.987	0.0424735
244.915	0.0431776
246.844	0.043913
248.772	0.044367
250.701	0.0448843
252.629	0.0455335
254.558	0.0459902
256.486	0.0462606
258.414	0.0467822
260.343	0.0474937
262.271	0.0481117
264.2	0.0484643
266.128	0.0489847
268.057	0.0496593
269.985	0.0504866
271.914	0.0511981
273.842	0.0517114
275.771	0.052069
277.699	0.0523621
279.628	0.051916
281.556	0.0513504
283.485	0.0514031
285.413	0.0519885
287.341	0.0527764
289.27	0.0536739
291.198	0.0542812
293.127	0.0547073
295.055	0.0552809
296.984	0.0560832
298.912	0.0567106
300.841	0.0575943
302.769	0.0582717
304.698	0.0579964
306.626	0.057829
308.555	0.058269
310.483	0.0589526
312.411	0.0593038
314.34	0.0595738
316.269	0.0596623
318.197	0.0594361
320.125	0.0590095
322.054	0.0586425
323.982	0.0579182
325.911	0.056893
327.839	0.0559412
329.768	0.0547266
331.696	0.0532089
333.625	0.0518561
335.553	0.0502239
337.482	0.04885
339.41	0.0482976
341.339	0.0486533
343.267	0.0497057
345.195	0.0508864
347.124	0.0521039
349.052	0.0537941
350.981	0.055416
352.909	0.0570035
354.838	0.0585068
356.766	0.0596531
358.695	0.0609824
360.623	0.0625373
362.552	0.0638306
364.48	0.0650016
366.409	0.0663151
368.337	0.0673411
370.265	0.0674027
372.194	0.0672812
374.122	0.0675123
376.051	0.0670308
377.979	0.06611
379.908	0.065321
381.836	0.0645598
383.765	0.0637399
385.693	0.0624546
387.622	0.0608799
389.55	0.0600932
391.479	0.0598725
393.407	0.0601728
395.336	0.0607148
397.264	0.0610448
399.192	0.0613863
401.121	0.0618336
403.049	0.0625257
404.978	0.063384
406.906	0.0641654
408.835	0.0648851
410.763	0.065486
412.692	0.0658329
414.62	0.0662273
416.549	0.0666092
418.477	0.0673875
420.406	0.0681205
422.334	0.0686908
424.262	0.0694106
426.191	0.0695785
428.12	0.0692648
430.048	0.0687141
431.976	0.0679233
433.905	0.0671642
435.833	0.066696
437.762	0.0667391
439.69	0.0674631
441.619	0.0684121
443.547	0.069414
445.476	0.0705767
447.404	0.0713267
449.333	0.0714622
451.261	0.0713742
453.19	0.0713709
455.118	0.071342
457.046	0.0711554
458.975	0.0711575
460.903	0.0710797
462.832	0.0714428
464.76	0.0717813
466.689	0.0718763
468.617	0.0723002
470.546	0.0723536
472.474	0.0720254
474.403	0.0720818
476.331	0.0719313
478.26	0.0713971
480.188	0.0708705
482.116	0.0700869
484.045	0.0693808
485.974	0.0689105
487.902	0.0685571
489.83	0.0683848
491.759	0.0684272
493.687	0.0688271
495.616	0.0695372
497.544	0.0707358
499.473	0.0720747
501.401	0.0734781
503.33	0.0742838
505.258	0.0744025
507.187	0.0741662
509.115	0.0734626
511.043	0.0720831
512.972	0.0704815
514.9	0.068975
516.829	0.0677663
518.757	0.0667029
520.686	0.0648233
522.614	0.0626128
524.543	0.0608346
526.471	0.0593985
528.4	0.0582058
530.328	0.0572346
532.257	0.0566414
534.185	0.0570759
536.114	0.058818
538.042	0.0603252
539.971	0.0614732
541.899	0.0623873
543.827	0.0632655
545.756	0.0637773
547.684	0.0642819
549.613	0.064207
551.541	0.0634096
553.47	0.0628823
555.398	0.0626133
557.327	0.0622462
559.255	0.0619383
561.184	0.0614224
563.112	0.0607145
565.041	0.0603217
566.969	0.0596314
568.898	0.058722
570.826	0.0579197
572.755	0.0572663
574.683	0.056816
576.611	0.0570799
578.54	0.0567876
580.468	0.056202
582.397	0.0562579
584.325	0.0560467
586.254	0.0557237
588.182	0.0557459
590.111	0.0557088
592.039	0.054718
593.968	0.0532156
595.896	0.0518566
597.824	0.0500726
599.753	0.0482908
601.682	0.0475796
603.61	0.0472274
605.538	0.0465989
607.467	0.0470513
609.395	0.0471913
611.324	0.046009
613.252	0.0452822
615.181	0.044842
617.109	0.0444118
619.038	0.0436471
620.966	0.043567
622.894	0.0449054
624.823	0.0471427
626.751	0.0499339
628.68	0.0532362
630.608	0.0563644
632.537	0.0588973
634.465	0.0602317
636.394	0.0615592
638.322	0.0634857
640.251	0.0656688
642.179	0.0675912
644.108	0.0698546
646.036	0.0718058
647.965	0.0721913
649.893	0.0718228
651.822	0.0709919
653.75	0.0691279
655.678	0.0664285
657.607	0.0638442
659.535	0.0614736
661.464	0.0584217
663.392	0.0556031
665.321	0.0535398
667.249	0.0517685
669.178	0.0500281
671.106	0.0486337
673.035	0.0474133
674.963	0.0468562
676.892	0.0467431
678.82	0.0467007
680.749	0.0465648
682.677	0.0461856
684.606	0.0454373
686.534	0.0447953
688.462	0.0445931
690.391	0.0455943
692.319	0.0470288
694.248	0.0471243
696.176	0.0459334
698.105	0.0462356
700.033	0.0482716
