Measurement: Infrared, Infrared Data Processed
Mineral: Lecoqite-(Y)
Rruff sample: R141187
Ideal chemistry: Na_3_Y(CO_3_)_3_6H_2_O
Locality: Synthetic
Source: Amor Ben Ali
Description: Hydrothermal synthesis. Crystals grow in a Teflon lined Parr autoclave at 220 Â°C during 48 h.
x	intensity
4000	49.7396
3991	49.7207
3982	49.7211
3973	49.7058
3964	49.702
3955	49.743
3946	49.7161
3937	49.7326
3928	49.7451
3919	49.7041
3910	49.7442
3901	49.7138
3892	49.7272
3883	49.7358
3874	49.7241
3865	49.7856
3856	49.7287
3847	49.7475
3838	49.7448
3829	49.7581
3820	49.8177
3811	49.736
3802	49.7399
3793	49.7154
3784	49.6791
3775	49.7129
3766	49.7264
3757	49.7206
3748	49.7144
3739	49.6699
3730	49.721
3721	49.6696
3712	49.7255
3703	49.649
3694	49.6203
3685	49.5458
3676	49.4632
3667	49.3948
3658	49.2373
3649	49.0063
3640	48.7376
3631	48.4398
3622	48.1156
3613	47.811
3604	47.524
3595	47.4065
3586	47.4979
3577	47.5779
3568	47.6301
3559	47.7009
3550	47.7685
3541	47.783
3532	47.8974
3523	47.9096
3514	47.9628
3505	48.0477
3496	48.0297
3487	48.0526
3478	48.053
3469	48.007
3460	47.8981
3451	47.7623
3442	47.6567
3433	47.5405
3424	47.3461
3415	47.0945
3406	46.8244
3397	46.6184
3388	46.4113
3379	46.2394
3370	46.0396
3361	45.9511
3352	45.8218
3343	45.7683
3334	45.6965
3325	45.6144
3316	45.5806
3307	45.6045
3298	45.6292
3289	45.6345
3280	45.5913
3271	45.5074
3262	45.3834
3253	45.223
3244	44.9896
3235	44.8509
3226	44.6761
3217	44.5442
3208	44.4319
3199	44.3401
3190	44.1884
3181	44.0224
3172	43.8329
3163	43.6127
3154	43.4418
3145	43.2736
3136	43.1775
3127	43.0551
3118	42.987
3109	43.004
3100	43.1124
3091	43.2577
3082	43.4298
3073	43.5866
3064	43.7707
3055	43.8536
3046	43.9813
3037	44.1034
3028	44.1747
3019	44.3185
3010	44.3553
3001	44.3634
2992	44.5152
2983	44.5699
2974	44.4085
2965	44.2864
2956	44.2495
2947	44.3272
2938	44.3641
2929	44.4559
2920	44.4179
2911	44.3097
2902	44.303
2893	44.2949
2884	44.2343
2875	44.1773
2866	44.1074
2857	44.0616
2848	43.9751
2839	43.8427
2830	43.7596
2821	43.6356
2812	43.5509
2803	43.5002
2794	43.4205
2785	43.379
2776	43.3771
2767	43.3461
2758	43.3618
2749	43.4725
2740	43.5721
2731	43.6915
2722	43.8723
2713	44.0234
2704	44.2011
2695	44.4234
2686	44.6843
2677	44.8768
2668	45.0852
2659	45.1772
2650	45.3004
2641	45.4901
2632	45.6118
2623	45.7204
2614	45.8396
2605	45.9536
2596	46.1097
2587	46.1565
2578	46.2769
2569	46.3004
2560	46.4225
2551	46.4685
2542	46.4396
2533	46.4037
2524	46.4972
2515	46.5746
2506	46.6191
2497	46.6039
2488	46.6212
2479	46.6242
2470	46.5724
2461	46.5238
2452	46.4359
2443	46.3867
2434	46.4662
2425	46.4502
2416	46.4782
2407	46.4151
2398	46.3861
2389	46.3203
2380	46.3696
2371	46.2209
2362	46.1629
2353	46.1622
2344	46.2298
2335	46.1054
2326	46.0276
2317	46.0575
2308	46.041
2299	46.0032
2290	46.08
2281	46.1471
2272	46.3639
2263	46.5046
2254	46.6953
2245	46.8818
2236	47.1163
2227	47.2988
2218	47.3472
2209	47.4451
2200	47.59
2191	47.7469
2182	47.7371
2173	47.934
2164	47.7933
2155	48.3777
2146	48.1593
2137	48.0488
2128	48.0385
2119	48.0894
2110	48.0821
2101	48.0641
2092	48.2254
2083	48.1663
2074	48.184
2065	48.2115
2056	48.2447
2047	48.2124
2038	48.2799
2029	48.3835
2020	48.3389
2011	48.4438
2002	48.4761
1993	48.3207
1984	48.3016
1975	48.535
1966	48.5103
1957	48.4566
1948	48.5095
1939	48.4905
1930	48.5505
1921	48.5352
1912	48.5244
1903	48.5224
1894	48.4969
1885	48.5424
1876	48.538
1867	48.5108
1858	48.4445
1849	48.4145
1840	48.3717
1831	48.3156
1822	48.2907
1813	48.215
1804	48.0999
1795	47.9783
1786	47.7624
1777	47.7015
1768	47.7076
1759	47.6255
1750	47.5763
1741	47.6274
1732	47.6115
1723	47.6391
1714	47.9972
1705	48.5406
1696	48.134
1687	48.0968
1678	48.042
1669	47.3805
1660	47.68
1651	46.4465
1642	45.5849
1633	45.0552
1624	45.2026
1615	45.7057
1606	45.7503
1597	45.2911
1588	44.843
1579	44.3912
1570	43.3722
1561	42.8135
1552	42.0391
1543	40.7974
1534	39.4537
1525	37.6223
1516	35.1919
1507	31.9289
1498	26.9175
1489	23.0529
1480	22.7785
1471	25.436
1462	29.5582
1453	33.7654
1444	36.553
1435	38.0375
1426	38.2215
1417	36.0705
1408	31.8606
1399	25.3511
1390	18.1799
1381	12.3508
1372	11.8077
1363	14.3073
1354	16.9711
1345	19.9484
1336	22.8315
1327	25.6235
1318	28.4461
1309	30.6855
1300	32.7928
1291	35.2431
1282	36.3824
1273	37.6105
1264	39.0039
1255	39.9461
1246	41.959
1237	41.9085
1228	42.4721
1219	42.843
1210	43.2738
1201	43.9885
1192	44.1344
1183	44.5352
1174	45.4066
1165	45.1369
1156	45.3258
1147	45.5254
1138	45.7589
1129	46.1293
1120	46.3669
1111	46.607
1102	46.455
1093	46.4225
1084	46.3043
1075	45.9194
1066	37.2716
1057	44.7679
1048	46.0979
1039	46.2175
1030	46.0879
1021	46.3339
1012	46.1305
1003	45.9135
994	45.8333
985	45.6561
976	45.3721
967	45.1079
958	44.7304
949	44.3083
940	43.4825
931	42.3559
922	40.7976
913	38.5106
904	36.2602
895	34.5871
886	33.5407
877	31.482
868	34.7953
859	39.1508
850	40.6667
841	41.7633
832	41.7417
823	41.3246
814	40.79
805	40.4867
796	40.1808
787	40.0072
778	38.2677
769	34.471
760	32.1009
751	33.4754
742	34.7514
733	34.0293
724	29.9213
715	26.1131
706	27.5279
697	28.0114
688	21.7991
679	19.1522
670	25.1963
661	29.1785
652	30.818
643	31.7137
634	31.9088
625	31.8496
616	31.3657
607	32.0035
