Measurement: Infrared, Infrared Data Processed
Mineral: Leightonite
Rruff sample: R050211
Ideal chemistry: K_2_Ca_2_Cu^2+^(S^6+^O_4_)_4_2H_2_O
Locality: Chuquicamata mine, Calama, Antofagasta Province, Chile
Source: John Dagenais
Description: Blue lathlike crystals
Measured chemistry: (K_1.91_Na_0.09_)_Σ=2_Ca_2.00_Cu_1.00_(S_1.00_O_4_)_4_·1.96H_2_O
x	intensity
374.123	0.0152148
383.765	0.0120804
393.407	0.0175887
403.05	0.0225607
412.692	0.0244365
422.334	0.030111
431.976	0.0437166
441.619	0.0504326
451.261	0.0434498
460.904	0.0533851
470.546	0.0751185
480.188	0.0840629
489.83	0.0696532
499.473	0.081082
509.115	0.100681
518.758	0.108177
528.4	0.119547
538.042	0.131795
547.684	0.136001
557.327	0.135403
566.969	0.123514
576.611	0.121452
586.254	0.165154
595.896	0.20568
605.538	0.14948
615.181	0.132978
624.823	0.145328
634.466	0.137862
644.108	0.141257
653.75	0.0802114
663.393	0.0642753
673.035	0.0250396
682.677	0.0241149
692.319	0.0267297
701.962	0.0302886
711.604	0.0350862
721.246	0.0416491
730.889	0.0504859
740.531	0.0611342
750.173	0.0753044
759.816	0.0913842
769.458	0.108107
779.101	0.124367
788.743	0.135069
798.385	0.136955
808.028	0.126698
817.67	0.110207
827.312	0.0924106
836.955	0.0753937
846.597	0.0649632
856.239	0.0610499
865.881	0.0602496
875.524	0.0568996
885.166	0.0511017
894.808	0.0502408
904.451	0.0544109
914.093	0.0606545
923.736	0.0668334
933.378	0.0743097
943.02	0.0835658
952.663	0.0958044
962.305	0.116021
971.947	0.15124
981.59	0.209922
991.232	0.318134
1000.87	0.31024
1010.52	0.207163
1020.16	0.267651
1029.8	0.365525
1039.44	0.457628
1049.09	0.533743
1058.73	0.543284
1068.37	0.474799
1078.01	0.404026
1087.65	0.369447
1097.3	0.382627
1106.94	0.391624
1116.58	0.413023
1126.22	0.388383
1135.87	0.364324
1145.51	0.341653
1155.15	0.309351
1164.79	0.291029
1174.44	0.238075
1184.08	0.166729
1193.72	0.12518
1203.36	0.0905423
1213.01	0.0602117
1222.65	0.040114
1232.29	0.0262765
1241.93	0.0137629
1251.58	0.00995959
1261.22	0.00818292
1270.86	0.00665181
1280.5	0.00574166
1290.14	0.00481468
1299.79	0.00430909
1309.43	0.00388694
1319.07	0.0036346
1328.71	0.00374502
1338.36	0.00389247
1348	0.00401878
1357.64	0.00416562
1367.28	0.00460096
1376.92	0.00494589
1386.57	0.00545254
1396.21	0.00604371
1405.85	0.00636914
1415.49	0.0068053
1425.14	0.00733874
1434.78	0.00804149
1444.42	0.00849497
1454.06	0.00867016
1463.71	0.00911851
1473.35	0.010074
1482.99	0.0108834
1492.63	0.0114259
1502.28	0.0122297
1511.92	0.0124861
1521.56	0.0127479
1531.2	0.012653
1540.85	0.0127427
1550.49	0.0122173
1560.13	0.0121253
1569.77	0.0123041
1579.41	0.0122726
1589.06	0.0124781
1598.7	0.0131767
1608.34	0.0133843
1617.98	0.013426
1627.63	0.0130913
1637.27	0.0126145
1646.91	0.0121257
1656.55	0.0113502
1666.19	0.0109261
1675.84	0.0106213
1685.48	0.0109079
1695.12	0.0112947
1704.77	0.0116337
1714.41	0.011317
1724.05	0.0103307
1733.69	0.00863805
1743.33	0.00721377
1752.98	0.00626141
1762.62	0.00526416
1772.26	0.00468329
1781.9	0.00428765
1791.55	0.00386144
1801.19	0.00355709
1810.83	0.00333117
1820.47	0.00353641
1830.12	0.00340442
1839.76	0.00285317
1849.4	0.00295788
1859.04	0.00351769
1868.68	0.00345345
1878.33	0.00308823
1887.97	0.00338622
1897.61	0.00360222
1907.25	0.00367925
1916.9	0.00256416
1926.54	0.00307352
1936.18	0.0030948
1945.82	0.0025909
1955.46	0.00238616
1965.11	0.00211598
1974.75	0.00137247
1984.39	0.00302749
1994.04	0.00224282
2003.68	0.00196387
2013.32	0.00278758
2022.96	0.00290228
2032.6	0.00395194
2042.25	0.00442273
2051.89	0.00490227
2061.53	0.00457634
2071.17	0.00464527
2080.82	0.00484377
2090.46	0.00390929
2100.1	0.00462212
2109.74	0.00439308
2119.39	0.00426484
2129.03	0.0039736
2138.67	0.00284058
2148.31	0.00374022
2157.95	0.0026724
2167.6	0.00551481
2177.24	0.00497793
2186.88	0.00514985
2196.52	0.00598358
2206.17	0.00495968
2215.81	0.00565588
2225.45	0.00458558
2235.09	0.00447183
2244.74	0.00489865
2254.38	0.00530437
2264.02	0.00530978
2273.66	0.00688439
2283.3	0.00751127
2292.95	0.00671611
2302.59	0.00614986
2312.23	0.00645023
2321.87	0.00752734
2331.52	0.0057773
2341.16	0.00567372
2350.8	0.0061737
2360.44	0.00562716
2370.09	0.00560494
2379.73	0.0063839
2389.37	0.00638743
2399.01	0.00608643
2408.66	0.00689164
2418.3	0.0070426
2427.94	0.00759408
2437.58	0.00830138
2447.22	0.00848059
2456.87	0.0086636
2466.51	0.00890921
2476.15	0.0089395
2485.79	0.00884393
2495.44	0.00934435
2505.08	0.00971816
2514.72	0.00961161
2524.36	0.00981354
2534.01	0.0100269
2543.65	0.0104031
2553.29	0.0102105
2562.93	0.0108085
2572.57	0.0108501
2582.22	0.0107773
2591.86	0.0109795
2601.5	0.0112555
2611.14	0.0115878
2620.79	0.0114528
2630.43	0.0116571
2640.07	0.0118655
2649.71	0.0117713
2659.36	0.011818
2669	0.0116611
2678.64	0.0116698
2688.28	0.0120745
2697.93	0.0122577
2707.57	0.0129624
2717.21	0.0132131
2726.85	0.013965
2736.49	0.0139514
2746.14	0.0147814
2755.78	0.0150006
2765.42	0.0153996
2775.06	0.0158387
2784.71	0.0166862
2794.35	0.0172301
2803.99	0.0177282
2813.63	0.0186379
2823.28	0.0196895
2832.92	0.0206511
2842.56	0.0219515
2852.2	0.0225634
2861.84	0.0240979
2871.49	0.0254066
2881.13	0.0266945
2890.77	0.0277969
2900.41	0.0294114
2910.06	0.0311611
2919.7	0.0321945
2929.34	0.0350613
2938.98	0.0366178
2948.62	0.0379499
2958.27	0.04027
2967.91	0.0416912
2977.55	0.044053
2987.2	0.0460586
2996.84	0.0495862
3006.48	0.0518208
3016.12	0.0536037
3025.76	0.0577042
3035.41	0.0602956
3045.05	0.0631023
3054.69	0.0653309
3064.33	0.0665397
3073.98	0.0683921
3083.62	0.0693521
3093.26	0.0706297
3102.9	0.0724954
3112.55	0.0741638
3122.19	0.0763016
3131.83	0.0783223
3141.47	0.0799131
3151.11	0.0823438
3160.76	0.0832433
3170.4	0.0854185
3180.04	0.0871965
3189.68	0.089401
3199.33	0.0913465
3208.97	0.0944013
3218.61	0.0962765
3228.25	0.0984069
3237.9	0.100242
3247.54	0.101354
3257.18	0.101348
3266.82	0.101349
3276.47	0.101185
3286.11	0.10129
3295.75	0.101112
3305.39	0.101099
3315.03	0.0994662
3324.68	0.0965918
3334.32	0.0932424
3343.96	0.0878345
3353.6	0.0823884
3363.25	0.0759678
3372.89	0.0690993
3382.53	0.0630936
3392.17	0.0563191
3401.82	0.0495201
3411.46	0.0436085
3421.1	0.0395362
3430.74	0.0343234
3440.39	0.031354
3450.03	0.0290584
3459.67	0.0250783
3469.31	0.0221092
3478.95	0.0194833
3488.6	0.0180735
3498.24	0.0157363
3507.88	0.0144267
3517.52	0.0138925
3527.17	0.0127492
3536.81	0.0120095
3546.45	0.0111901
3556.09	0.0100783
3565.74	0.0102373
3575.38	0.00769998
3585.02	0.00847855
3594.66	0.00917422
3604.3	0.0101061
3613.95	0.0106065
3623.59	0.0112448
3633.23	0.0114185
3642.87	0.00994462
3652.52	0.0097538
3662.16	0.00929538
3671.8	0.00924836
3681.44	0.00846984
3691.09	0.00690505
3700.73	0.00755568
3710.37	0.00721546
3720.01	0.00753903
3729.66	0.00746519
3739.3	0.00875771
3748.94	0.00838772
3758.58	0.00728375
3768.22	0.00807809
3777.87	0.00818423
3787.51	0.00850703
3797.15	0.00860579
3806.79	0.00842514
3816.44	0.00863178
3826.08	0.00792331
3835.72	0.00849427
3845.36	0.00769021
3855.01	0.00878226
3864.65	0.00809631
3874.29	0.00813128
3883.93	0.0092581
3893.57	0.00925408
3903.22	0.008919
3912.86	0.00966398
3922.5	0.00941007
3932.14	0.0095903
3941.79	0.0095018
3951.43	0.00920032
3961.07	0.00961753
3970.71	0.0099162
3980.36	0.00999062
3990	0.0109622
3999.64	0.00998576
