Measurement: Infrared, Infrared Data Processed
Mineral: Leiteite
Rruff sample: R040011
Ideal chemistry: Zn^2+^As^3+^_2_O_4_
Locality: Tsumeb mine, Tsumeb, Otavi District, Oshikoto, Namibia
Source: Dave Bunk Minerals
Description: Transparent tan colored flexible lamellar crystal
Measured chemistry: Zn_1.00_As^3+^_2.00_O_4_
x	intensity
399.193	0
408.835	0.196062
418.477	0.221957
428.12	0.237403
437.762	0.255825
447.404	0.274058
457.047	0.270194
466.689	0.23586
476.331	0.247094
485.974	0.249555
495.616	0.231995
505.258	0.228841
514.901	0.268009
524.543	0.290383
534.185	0.275747
543.828	0.262807
553.47	0.279692
563.112	0.272272
572.755	0.260673
582.397	0.280602
592.039	0.302905
601.682	0.272787
611.324	0.235081
620.966	0.221462
630.609	0.228796
640.251	0.260229
649.893	0.25784
659.536	0.185411
669.178	0.149391
678.82	0.128405
688.463	0.112078
698.105	0.0984474
707.747	0.091364
717.39	0.096856
727.032	0.10648
736.674	0.120215
746.317	0.143124
755.959	0.181684
765.601	0.18736
775.244	0.12329
784.886	0.0832502
794.528	0.0636027
804.171	0.0442339
813.813	0.028717
823.455	0.0218938
833.098	0.0194467
842.74	0.0181455
852.382	0.0172682
862.025	0.0164243
871.667	0.0154215
881.309	0.0132419
890.952	0.0120392
900.594	0.0113781
910.236	0.0108364
919.879	0.0101182
929.521	0.00988336
939.163	0.00981266
948.806	0.00980852
958.448	0.010759
968.09	0.0118219
977.733	0.0135405
987.375	0.015135
997.017	0.0157177
1006.66	0.0159357
1016.3	0.0160444
1025.94	0.0157962
1035.59	0.0157595
1045.23	0.0160903
1054.87	0.0176246
1064.51	0.0192849
1074.16	0.0195489
1083.8	0.0189815
1093.44	0.019111
1103.08	0.0191646
1112.72	0.0190932
1122.37	0.0188379
1132.01	0.0191223
1141.65	0.0195309
1151.3	0.020376
1160.94	0.0205956
1170.58	0.0201893
1180.22	0.020887
1189.86	0.0203105
1199.51	0.0193451
1209.15	0.0186087
1218.79	0.0185153
1228.43	0.0189783
1238.08	0.0202351
1247.72	0.0214729
1257.36	0.0230049
1267	0.0242696
1276.64	0.0246994
1286.29	0.0233745
1295.93	0.0227289
1305.57	0.0225373
1315.21	0.0222581
1324.86	0.0220641
1334.5	0.022115
1344.14	0.0226657
1353.78	0.0232722
1363.43	0.0242581
1373.07	0.025826
1382.71	0.0275826
1392.35	0.0297243
1401.99	0.0312827
1411.64	0.032087
1421.28	0.0315128
1430.92	0.0322476
1440.57	0.0317457
1450.21	0.0314946
1459.85	0.0311278
1469.49	0.0306805
1479.13	0.0270368
1488.78	0.0259191
1498.42	0.0254934
1508.06	0.025605
1517.7	0.0252513
1527.35	0.0252853
1536.99	0.026245
1546.63	0.0270782
1556.27	0.0279264
1565.91	0.0281891
1575.56	0.0283844
1585.2	0.0290621
1594.84	0.0291025
1604.48	0.0293497
1614.13	0.0300341
1623.77	0.0303808
1633.41	0.0303498
1643.05	0.0309204
1652.7	0.0311609
1662.34	0.0309467
1671.98	0.030959
1681.62	0.0311252
1691.27	0.031536
1700.91	0.0329273
1710.55	0.0334506
1720.19	0.0336358
1729.84	0.0339583
1739.48	0.0333564
1749.12	0.0327779
1758.76	0.0328825
1768.4	0.0330605
1778.05	0.0333339
1787.69	0.0340528
1797.33	0.0338644
1806.97	0.0338684
1816.62	0.0344503
1826.26	0.0353088
1835.9	0.0358154
1845.54	0.0363039
1855.18	0.0361366
1864.83	0.0368005
1874.47	0.0371983
1884.11	0.037771
1893.75	0.0374213
1903.4	0.0386623
1913.04	0.0388097
1922.68	0.0396052
1932.32	0.0405709
1941.97	0.0416888
1951.61	0.0413449
1961.25	0.0411461
1970.89	0.0429855
1980.54	0.0451943
1990.18	0.0432204
1999.82	0.0424281
2009.46	0.042744
2019.11	0.0451684
2028.75	0.0453761
2038.39	0.0457622
2048.03	0.0468788
2057.67	0.0458378
2067.32	0.0479816
2076.96	0.0468643
2086.6	0.0474052
2096.24	0.046897
2105.89	0.0481776
2115.53	0.0497827
2125.17	0.0490594
2134.81	0.0476143
2144.45	0.049715
2154.1	0.0466608
2163.74	0.0530038
2173.38	0.0512902
2183.02	0.0522444
2192.67	0.0542181
2202.31	0.0553469
2211.95	0.0538723
2221.59	0.0541873
2231.24	0.0537061
2240.88	0.0531408
2250.52	0.0557885
2260.16	0.0555804
2269.8	0.0557037
2279.45	0.0563353
2289.09	0.0566096
2298.73	0.0558287
2308.38	0.0564565
2318.02	0.0569123
2327.66	0.0562542
2337.3	0.0574286
2346.94	0.0567205
2356.59	0.05886
2366.23	0.0588484
2375.87	0.0584441
2385.51	0.0576971
2395.16	0.0591114
2404.8	0.0590907
2414.44	0.060623
2424.08	0.0600323
2433.72	0.0602053
2443.37	0.0613429
2453.01	0.0612201
2462.65	0.0618525
2472.29	0.0623818
2481.94	0.0620334
2491.58	0.0621587
2501.22	0.0631711
2510.86	0.0633507
2520.51	0.0638167
2530.15	0.0646646
2539.79	0.0642691
2549.43	0.063941
2559.07	0.0649269
2568.72	0.0647737
2578.36	0.06589
2588	0.0661276
2597.64	0.0665393
2607.29	0.0669977
2616.93	0.0670809
2626.57	0.0676635
2636.21	0.0689852
2645.86	0.0677453
2655.5	0.0683175
2665.14	0.0681565
2674.78	0.0683081
2684.43	0.0690717
2694.07	0.0696425
2703.71	0.0699075
2713.35	0.0705826
2722.99	0.0714219
2732.64	0.0728893
2742.28	0.0717081
2751.92	0.0727261
2761.56	0.0733193
2771.21	0.0743993
2780.85	0.0738664
2790.49	0.0755582
2800.13	0.0757346
2809.78	0.0757189
2819.42	0.0772034
2829.06	0.0778545
2838.7	0.0814361
2848.34	0.09368
2857.99	0.0871672
2867.63	0.0843601
2877.27	0.0854057
2886.91	0.0853769
2896.56	0.0883773
2906.2	0.0931218
2915.84	0.110528
2925.48	0.10742
2935.13	0.0929805
2944.77	0.0886154
2954.41	0.0901727
2964.05	0.0883046
2973.7	0.0858123
2983.34	0.0845521
2992.98	0.0832929
3002.62	0.0845784
3012.26	0.0846077
3021.91	0.0856112
3031.55	0.0860923
3041.19	0.0867952
3050.83	0.0865881
3060.48	0.0873794
3070.12	0.0870081
3079.76	0.0892402
3089.4	0.0894996
3099.05	0.0887838
3108.69	0.0903777
3118.33	0.0907073
3127.97	0.0924303
3137.61	0.0908814
3147.26	0.0910934
3156.9	0.0923168
3166.54	0.0917791
3176.18	0.0948392
3185.83	0.0945225
3195.47	0.0939173
3205.11	0.0943106
3214.75	0.0943421
3224.4	0.09577
3234.04	0.0948162
3243.68	0.0968466
3253.32	0.0964187
3262.97	0.096335
3272.61	0.095829
3282.25	0.0961978
3291.89	0.0966794
3301.53	0.097661
3311.18	0.0975283
3320.82	0.0985355
3330.46	0.0988742
3340.1	0.0984468
3349.75	0.0973509
3359.39	0.0976532
3369.03	0.0988375
3378.67	0.100108
3388.32	0.100007
3397.96	0.098357
3407.6	0.0981561
3417.24	0.0992431
3426.89	0.0988268
3436.53	0.0990242
3446.17	0.0994489
3455.81	0.098423
3465.45	0.096726
3475.1	0.0971728
3484.74	0.0958095
3494.38	0.0956601
3504.02	0.0985761
3513.67	0.0961186
3523.31	0.0963224
3532.95	0.0971998
3542.59	0.0948924
3552.24	0.0967179
3561.88	0.0967534
3571.52	0.0940336
3581.16	0.0958106
3590.8	0.0972365
3600.45	0.096991
3610.09	0.0953938
3619.73	0.096214
3629.37	0.0954908
3639.02	0.0953044
3648.66	0.0949418
3658.3	0.096055
3667.94	0.0960198
3677.59	0.0958181
3687.23	0.0945278
3696.87	0.095658
3706.51	0.0952795
3716.16	0.0994908
3725.8	0.0973925
3735.44	0.0997013
3745.08	0.100842
3754.72	0.0977966
3764.37	0.0992885
3774.01	0.0981006
3783.65	0.0971429
3793.29	0.0999406
3802.94	0.103004
3812.58	0.0992357
3822.22	0.101324
3831.86	0.10008
3841.51	0.102236
3851.15	0.10038
3860.79	0.104543
3870.43	0.101177
3880.07	0.101613
3889.72	0.102311
3899.36	0.102636
3909	0.100197
3918.64	0.104386
3928.29	0.105617
3937.93	0.10569
3947.57	0.107015
3957.21	0.103165
3966.86	0.105805
3976.5	0.10441
3986.14	0.105904
3995.78	0.104522
