Measurement: Infrared, Infrared Data Processed
Mineral: Lepidocrocite
Rruff sample: R050454
Ideal chemistry: Fe^3+^O(OH)
Locality: Malvern, Chester County, Pennsylvania, USA
Source: University of Arizona Mineral Museum
Description: Aggregate of red-brown flattened and platy crystals
Measured chemistry: Fe^3+^_0.99_O(OH)
x	intensity
374.123	0.193137
383.765	0.194932
393.407	0.174926
403.05	0.17838
412.692	0.177829
422.334	0.18366
431.976	0.188576
441.619	0.191267
451.261	0.192929
460.904	0.186385
470.546	0.176082
480.188	0.161613
489.83	0.152271
499.473	0.146833
509.115	0.139709
518.758	0.131585
528.4	0.122266
538.042	0.113216
547.684	0.104619
557.327	0.0973465
566.969	0.0915575
576.611	0.0877613
586.254	0.0845237
595.896	0.0798981
605.538	0.075145
615.181	0.0697293
624.823	0.0651077
634.466	0.0603556
644.108	0.055075
653.75	0.0515844
663.393	0.0494745
673.035	0.0475569
682.677	0.0460031
692.319	0.0467282
701.962	0.0497828
711.604	0.0559394
721.246	0.0660222
730.889	0.0822856
740.531	0.0953979
750.173	0.0865803
759.816	0.0719352
769.458	0.0636735
779.101	0.0621136
788.743	0.0621657
798.385	0.0615269
808.028	0.0591901
817.67	0.0570458
827.312	0.0564255
836.955	0.0573471
846.597	0.0599262
856.239	0.0624738
865.881	0.0661724
875.524	0.0698968
885.166	0.0725295
894.808	0.0730111
904.451	0.0711674
914.093	0.0688409
923.736	0.0667516
933.378	0.0666926
943.02	0.0687152
952.663	0.0719541
962.305	0.0767745
971.947	0.0815106
981.59	0.0874469
991.232	0.0974149
1000.87	0.11364
1010.52	0.137179
1020.16	0.149503
1029.8	0.119573
1039.44	0.0892653
1049.09	0.0779408
1058.73	0.0764657
1068.37	0.078061
1078.01	0.0808426
1087.65	0.0842585
1097.3	0.0880495
1106.94	0.0917615
1116.58	0.0954382
1126.22	0.0983224
1135.87	0.100944
1145.51	0.101532
1155.15	0.100261
1164.79	0.0974141
1174.44	0.0938469
1184.08	0.0902479
1193.72	0.0879742
1203.36	0.0863296
1213.01	0.0852664
1222.65	0.0843396
1232.29	0.0838619
1241.93	0.084116
1251.58	0.0849459
1261.22	0.0860197
1270.86	0.0875382
1280.5	0.0892255
1290.14	0.0909324
1299.79	0.0928472
1309.43	0.0952545
1319.07	0.0976774
1328.71	0.100029
1338.36	0.101912
1348	0.103651
1357.64	0.105345
1367.28	0.107644
1376.92	0.109531
1386.57	0.111375
1396.21	0.113652
1405.85	0.115989
1415.49	0.118443
1425.14	0.121468
1434.78	0.124432
1444.42	0.12712
1454.06	0.130284
1463.71	0.132622
1473.35	0.134256
1482.99	0.134133
1492.63	0.135123
1502.28	0.136408
1511.92	0.137766
1521.56	0.14021
1531.2	0.140808
1540.85	0.143185
1550.49	0.143665
1560.13	0.146879
1569.77	0.147866
1579.41	0.149785
1589.06	0.151969
1598.7	0.154386
1608.34	0.156611
1617.98	0.158989
1627.63	0.160105
1637.27	0.161703
1646.91	0.16306
1656.55	0.163532
1666.19	0.164667
1675.84	0.166465
1685.48	0.168854
1695.12	0.170884
1704.77	0.172658
1714.41	0.175248
1724.05	0.178171
1733.69	0.182359
1743.33	0.184292
1752.98	0.187096
1762.62	0.190066
1772.26	0.192575
1781.9	0.194949
1791.55	0.197136
1801.19	0.197742
1810.83	0.198722
1820.47	0.199157
1830.12	0.199984
1839.76	0.201224
1849.4	0.202202
1859.04	0.203686
1868.68	0.205164
1878.33	0.205527
1887.97	0.206169
1897.61	0.2055
1907.25	0.205057
1916.9	0.205378
1926.54	0.206597
1936.18	0.209208
1945.82	0.209427
1955.46	0.210227
1965.11	0.211467
1974.75	0.210571
1984.39	0.209229
1994.04	0.207134
2003.68	0.204226
2013.32	0.202586
2022.96	0.201939
2032.6	0.20149
2042.25	0.202722
2051.89	0.205464
2061.53	0.205645
2071.17	0.207413
2080.82	0.207749
2090.46	0.208694
2100.1	0.210098
2109.74	0.211508
2119.39	0.211288
2129.03	0.211748
2138.67	0.21328
2148.31	0.214951
2157.95	0.215051
2167.6	0.220075
2177.24	0.220094
2186.88	0.221434
2196.52	0.224161
2206.17	0.225848
2215.81	0.226417
2225.45	0.228617
2235.09	0.231293
2244.74	0.231385
2254.38	0.234264
2264.02	0.235166
2273.66	0.237743
2283.3	0.238834
2292.95	0.240828
2302.59	0.242925
2312.23	0.24452
2321.87	0.247743
2331.52	0.249601
2341.16	0.251371
2350.8	0.251218
2360.44	0.25421
2370.09	0.254807
2379.73	0.256213
2389.37	0.257526
2399.01	0.25899
2408.66	0.261309
2418.3	0.262685
2427.94	0.264342
2437.58	0.267186
2447.22	0.268732
2456.87	0.270528
2466.51	0.272116
2476.15	0.273946
2485.79	0.275653
2495.44	0.278292
2505.08	0.280254
2514.72	0.282417
2524.36	0.284298
2534.01	0.286242
2543.65	0.288617
2553.29	0.291245
2562.93	0.2932
2572.57	0.295677
2582.22	0.29817
2591.86	0.300409
2601.5	0.302469
2611.14	0.305055
2620.79	0.307342
2630.43	0.309747
2640.07	0.312391
2649.71	0.314743
2659.36	0.317152
2669	0.318718
2678.64	0.3203
2688.28	0.32265
2697.93	0.324249
2707.57	0.326126
2717.21	0.328062
2726.85	0.329795
2736.49	0.331213
2746.14	0.332746
2755.78	0.333928
2765.42	0.335138
2775.06	0.335663
2784.71	0.337026
2794.35	0.33734
2803.99	0.337974
2813.63	0.338388
2823.28	0.337994
2832.92	0.338315
2842.56	0.337706
2852.2	0.335849
2861.84	0.335379
2871.49	0.335427
2881.13	0.333726
2890.77	0.333625
2900.41	0.332416
2910.06	0.331932
2919.7	0.330058
2929.34	0.330219
2938.98	0.328804
2948.62	0.328311
2958.27	0.328226
2967.91	0.326797
2977.55	0.326676
2987.2	0.325755
2996.84	0.325494
3006.48	0.325052
3016.12	0.321662
3025.76	0.323106
3035.41	0.323182
3045.05	0.321665
3054.69	0.321295
3064.33	0.319835
3073.98	0.319136
3083.62	0.317313
3093.26	0.315425
3102.9	0.313021
3112.55	0.31149
3122.19	0.309241
3131.83	0.306885
3141.47	0.303549
3151.11	0.300079
3160.76	0.296921
3170.4	0.292062
3180.04	0.288351
3189.68	0.284577
3199.33	0.279952
3208.97	0.275168
3218.61	0.269863
3228.25	0.265367
3237.9	0.260524
3247.54	0.255916
3257.18	0.251797
3266.82	0.248305
3276.47	0.245716
3286.11	0.24145
3295.75	0.240062
3305.39	0.237287
3315.03	0.235159
3324.68	0.233197
3334.32	0.233079
3343.96	0.231671
3353.6	0.229689
3363.25	0.228353
3372.89	0.227734
3382.53	0.227278
3392.17	0.22622
3401.82	0.223516
3411.46	0.222815
3421.1	0.222545
3430.74	0.222155
3440.39	0.220748
3450.03	0.221683
3459.67	0.220385
3469.31	0.219697
3478.95	0.219724
3488.6	0.219554
3498.24	0.219227
3507.88	0.21903
3517.52	0.218341
3527.17	0.219529
3536.81	0.217806
3546.45	0.217453
3556.09	0.21696
3565.74	0.21686
3575.38	0.216978
3585.02	0.217367
3594.66	0.218486
3604.3	0.218294
3613.95	0.218596
3623.59	0.219124
3633.23	0.219551
3642.87	0.220863
3652.52	0.222248
3662.16	0.222706
3671.8	0.225273
3681.44	0.224391
3691.09	0.22737
3700.73	0.22849
3710.37	0.230458
3720.01	0.23065
3729.66	0.231657
3739.3	0.232925
3748.94	0.236782
3758.58	0.23613
3768.22	0.236844
3777.87	0.237698
3787.51	0.239636
3797.15	0.241266
3806.79	0.2421
3816.44	0.243816
3826.08	0.243638
3835.72	0.245084
3845.36	0.24543
3855.01	0.248408
3864.65	0.24974
3874.29	0.250123
3883.93	0.251885
3893.57	0.251044
3903.22	0.253129
3912.86	0.25265
3922.5	0.254041
3932.14	0.255185
3941.79	0.256201
3951.43	0.255973
3961.07	0.257351
3970.71	0.258905
3980.36	0.258566
3990	0.259095
3999.64	0.260892
