Measurement: Infrared, Infrared Data Processed
Mineral: Leucite
Rruff sample: R040107
Ideal chemistry: K(Si_2_Al)O_6_
Locality: Roccamonfina, Italy
Source: University of Arizona Mineral Museum
Description: Rounded colorless crystals embedded in an ash matrix
Measured chemistry: (K_0.95_Na_0.03_)Al_0.99_Si_2.01_O_6_
x	intensity
399.193	0
408.835	0.253006
418.477	0.259647
428.12	0.247767
437.762	0.203971
447.404	0.150496
457.047	0.114698
466.689	0.100399
476.331	0.0836246
485.974	0.0718539
495.616	0.0461407
505.258	0.0358658
514.901	0.0412624
524.543	0.0412289
534.185	0.0435606
543.828	0.0468017
553.47	0.0281704
563.112	0.0264697
572.755	0.0285004
582.397	0.0346688
592.039	0.0438169
601.682	0.0590256
611.324	0.0618605
620.966	0.0643858
630.609	0.0844484
640.251	0.0889007
649.893	0.0584288
659.536	0.0551667
669.178	0.0655901
678.82	0.0835575
688.463	0.110695
698.105	0.137729
707.747	0.152999
717.39	0.156017
727.032	0.143719
736.674	0.132905
746.317	0.122547
755.959	0.111237
765.601	0.104891
775.244	0.0896905
784.886	0.0672231
794.528	0.0459063
804.171	0.033994
813.813	0.0310787
823.455	0.0335676
833.098	0.0285852
842.74	0.0294317
852.382	0.0350475
862.025	0.0429617
871.667	0.0542869
881.309	0.0710013
890.952	0.0932864
900.594	0.119018
910.236	0.154377
919.879	0.202798
929.521	0.269082
939.163	0.350198
948.806	0.400068
958.448	0.399513
968.09	0.38174
977.733	0.368823
987.375	0.360279
997.017	0.346295
1006.66	0.329338
1016.3	0.314576
1025.94	0.294038
1035.59	0.26951
1045.23	0.241906
1054.87	0.213995
1064.51	0.182732
1074.16	0.152622
1083.8	0.133366
1093.44	0.123149
1103.08	0.114279
1112.72	0.103781
1122.37	0.0917944
1132.01	0.0784566
1141.65	0.0649671
1151.3	0.0522627
1160.94	0.0401887
1170.58	0.0300202
1180.22	0.0216903
1189.86	0.0163473
1199.51	0.0128353
1209.15	0.0105082
1218.79	0.00832571
1228.43	0.00683859
1238.08	0.00570646
1247.72	0.00503793
1257.36	0.00442614
1267	0.00378178
1276.64	0.00350269
1286.29	0.00319879
1295.93	0.00310414
1305.57	0.00305334
1315.21	0.00296366
1324.86	0.00304371
1334.5	0.00297391
1344.14	0.00319331
1353.78	0.00294427
1363.43	0.00290216
1373.07	0.00290372
1382.71	0.00272614
1392.35	0.00275865
1401.99	0.00323914
1411.64	0.00323562
1421.28	0.00337697
1430.92	0.0032282
1440.57	0.00303374
1450.21	0.0030617
1459.85	0.00302274
1469.49	0.00257457
1479.13	0.00307238
1488.78	0.00304684
1498.42	0.00277721
1508.06	0.00328623
1517.7	0.00302974
1527.35	0.00323046
1536.99	0.00312
1546.63	0.00395637
1556.27	0.00414289
1565.91	0.00465297
1575.56	0.00476844
1585.2	0.00498882
1594.84	0.00511495
1604.48	0.00515524
1614.13	0.00518601
1623.77	0.00582713
1633.41	0.00593747
1643.05	0.00563257
1652.7	0.00518325
1662.34	0.00467846
1671.98	0.00450903
1681.62	0.00405079
1691.27	0.00382735
1700.91	0.00390148
1710.55	0.00342373
1720.19	0.00345484
1729.84	0.0034057
1739.48	0.00312495
1749.12	0.00296634
1758.76	0.00313863
1768.4	0.0032192
1778.05	0.00264882
1787.69	0.00265392
1797.33	0.00223457
1806.97	0.0024306
1816.62	0.00161045
1826.26	0.00175345
1835.9	0.00111653
1845.54	0.00170982
1855.18	0.00123113
1864.83	-0.000307303
1874.47	-5.94025e-05
1884.11	-0.000541986
1893.75	-0.000976913
1903.4	-0.00183163
1913.04	-0.00209977
1922.68	-0.00195476
1932.32	-0.00241433
1941.97	-0.00287735
1951.61	-0.00476556
1961.25	-0.00497432
1970.89	-0.0082542
1980.54	-0.00684004
1990.18	-0.00407497
1999.82	-0.00629832
2009.46	-0.00707286
2019.11	-0.00589952
2028.75	-0.00775206
2038.39	-0.00427592
2048.03	-0.00385813
2057.67	-0.00266945
2067.32	-0.00232858
2076.96	-0.00131554
2086.6	-0.00246578
2096.24	-0.00111811
2105.89	-0.000908248
2115.53	-0.00176753
2125.17	-0.00255335
2134.81	-0.00427359
2144.45	-0.0069228
2154.1	-0.0077138
2163.74	-0.00235135
2173.38	-0.00368795
2183.02	-0.00270735
2192.67	-0.00224448
2202.31	0.000315493
2211.95	0.00144821
2221.59	0.00177411
2231.24	0.00120575
2240.88	0.00176201
2250.52	0.00100916
2260.16	0.00181223
2269.8	0.00302656
2279.45	0.00333923
2289.09	0.00495838
2298.73	0.00498401
2308.38	0.00424101
2318.02	0.00614271
2327.66	0.00433755
2337.3	0.00452856
2346.94	0.00478767
2356.59	0.00516884
2366.23	0.00440453
2375.87	0.00367128
2385.51	0.00380998
2395.16	0.00407286
2404.8	0.00493373
2414.44	0.00476623
2424.08	0.00378685
2433.72	0.00508897
2443.37	0.00411607
2453.01	0.00429297
2462.65	0.00579882
2472.29	0.00442457
2481.94	0.00483148
2491.58	0.00466483
2501.22	0.00459814
2510.86	0.00418174
2520.51	0.00438794
2530.15	0.00445631
2539.79	0.00528727
2549.43	0.00497483
2559.07	0.00592148
2568.72	0.00587422
2578.36	0.0046212
2588	0.00607795
2597.64	0.00632967
2607.29	0.00619158
2616.93	0.00605161
2626.57	0.00564115
2636.21	0.00650793
2645.86	0.007065
2655.5	0.00584455
2665.14	0.0054667
2674.78	0.00569815
2684.43	0.00594689
2694.07	0.00544636
2703.71	0.00530394
2713.35	0.00525493
2722.99	0.00543673
2732.64	0.00480424
2742.28	0.00558932
2751.92	0.00583663
2761.56	0.00618952
2771.21	0.00559658
2780.85	0.00597675
2790.49	0.00537535
2800.13	0.00547881
2809.78	0.00541603
2819.42	0.00524667
2829.06	0.00545063
2838.7	0.00518873
2848.34	0.0058305
2857.99	0.00527455
2867.63	0.00553893
2877.27	0.00555151
2886.91	0.00604166
2896.56	0.0049368
2906.2	0.00594074
2915.84	0.00449932
2925.48	0.00364249
2935.13	0.0053678
2944.77	0.00541286
2954.41	0.00585847
2964.05	0.00577074
2973.7	0.0063913
2983.34	0.00712378
2992.98	0.00654883
3002.62	0.00716851
3012.26	0.00715519
3021.91	0.00683713
3031.55	0.00682602
3041.19	0.00780455
3050.83	0.00720356
3060.48	0.00784219
3070.12	0.00721441
3079.76	0.00777991
3089.4	0.00762656
3099.05	0.00827052
3108.69	0.00846756
3118.33	0.00854601
3127.97	0.00895098
3137.61	0.0103709
3147.26	0.00802471
3156.9	0.0100254
3166.54	0.00795999
3176.18	0.00877356
3185.83	0.0103306
3195.47	0.00996133
3205.11	0.009267
3214.75	0.00910841
3224.4	0.00824442
3234.04	0.00970706
3243.68	0.0089648
3253.32	0.00917099
3262.97	0.0101823
3272.61	0.00991483
3282.25	0.011346
3291.89	0.00890745
3301.53	0.00935222
3311.18	0.0109549
3320.82	0.0116351
3330.46	0.0087775
3340.1	0.011398
3349.75	0.0114792
3359.39	0.0111085
3369.03	0.0130995
3378.67	0.0107751
3388.32	0.0115723
3397.96	0.0109111
3407.6	0.0128691
3417.24	0.0108106
3426.89	0.0107525
3436.53	0.00986589
3446.17	0.0113492
3455.81	0.0128506
3465.45	0.0113449
3475.1	0.012899
3484.74	0.0110659
3494.38	0.0105526
3504.02	0.010951
3513.67	0.0115881
3523.31	0.011235
3532.95	0.0112474
3542.59	0.012496
3552.24	0.0125433
3561.88	0.0129488
3571.52	0.0134787
3581.16	0.0125606
3590.8	0.0101758
3600.45	0.0115694
3610.09	0.0106617
3619.73	0.0114234
3629.37	0.00985257
3639.02	0.00953694
3648.66	0.00935767
3658.3	0.00939622
3667.94	0.010314
3677.59	0.0106551
3687.23	0.00911915
3696.87	0.0105182
3706.51	0.00721249
3716.16	0.00836878
3725.8	0.00934174
3735.44	0.0093688
3745.08	0.00731054
3754.72	0.00965294
3764.37	0.0101828
3774.01	0.0100333
3783.65	0.0102493
3793.29	0.00778057
3802.94	0.0105869
3812.58	0.00925212
3822.22	0.00860898
3831.86	0.00793099
3841.51	0.00908103
3851.15	0.0104535
3860.79	0.0113264
3870.43	0.00934664
3880.07	0.0107275
3889.72	0.011302
3899.36	0.0113122
3909	0.00977241
3918.64	0.0102505
3928.29	0.0103942
3937.93	0.00832338
3947.57	0.0111257
3957.21	0.0119457
3966.86	0.0103698
3976.5	0.0121938
3986.14	0.00923377
3995.78	0.0116017
