Measurement: Infrared, Infrared Data Processed
Mineral: Leucophanite
Rruff sample: R050004
Ideal chemistry: NaCaBeSi_2_O_6_F
Locality: Langesundfjord, Norway
Source: University of Arizona Mineral Museum
Description: Pale green massive
Measured chemistry: Ca_1.00_Ca_1.00_Na_2.00_Be_2.00_Si_4.00_O_12_(F_0.96_(OH)_0.04_)_2_
x	intensity
399.193	0.0373512
408.835	0.0530332
418.477	0.0648462
428.12	0.0912487
437.762	0.13506
447.404	0.122473
457.047	0.0985639
466.689	0.12966
476.331	0.108225
485.974	0.0695388
495.616	0.0360171
505.258	0.042404
514.901	0.0387478
524.543	0.0637161
534.185	0.112702
543.828	0.105011
553.47	0.0520002
563.112	0.0317925
572.755	0.0359116
582.397	0.018442
592.039	0.0154619
601.682	0.0170583
611.324	0.0211508
620.966	0.0288676
630.609	0.0440428
640.251	0.0630703
649.893	0.0562701
659.536	0.072226
669.178	0.105233
678.82	0.129269
688.463	0.10554
698.105	0.0881146
707.747	0.0868166
717.39	0.106318
727.032	0.093842
736.674	0.0864747
746.317	0.0962595
755.959	0.0898077
765.601	0.0902005
775.244	0.111857
784.886	0.11197
794.528	0.0804061
804.171	0.0810778
813.813	0.073317
823.455	0.0508072
833.098	0.0370823
842.74	0.0405878
852.382	0.0551901
862.025	0.0756866
871.667	0.113195
881.309	0.136198
890.952	0.0987712
900.594	0.103195
910.236	0.153597
919.879	0.190599
929.521	0.190478
939.163	0.15562
948.806	0.151626
958.448	0.144676
968.09	0.163857
977.733	0.155428
987.375	0.145802
997.017	0.131532
1006.66	0.10487
1016.3	0.0912871
1025.94	0.0833834
1035.59	0.0684747
1045.23	0.0550184
1054.87	0.0562916
1064.51	0.076964
1074.16	0.101074
1083.8	0.0808763
1093.44	0.0618722
1103.08	0.0440862
1112.72	0.0274477
1122.37	0.017878
1132.01	0.0163101
1141.65	0.0108932
1151.3	0.00803634
1160.94	0.00628738
1170.58	0.00493546
1180.22	0.00465264
1189.86	0.00408757
1199.51	0.00359422
1209.15	0.00316196
1218.79	0.00314534
1228.43	0.00274173
1238.08	0.00284396
1247.72	0.00241253
1257.36	0.00203048
1267	0.00167235
1276.64	0.00167361
1286.29	0.00153361
1295.93	0.00159639
1305.57	0.00157475
1315.21	0.00167947
1324.86	0.00177451
1334.5	0.00172794
1344.14	0.00187652
1353.78	0.00204422
1363.43	0.00239456
1373.07	0.00243758
1382.71	0.00261794
1392.35	0.0032284
1401.99	0.00342446
1411.64	0.00355829
1421.28	0.00353238
1430.92	0.00365511
1440.57	0.00384822
1450.21	0.0041058
1459.85	0.00418713
1469.49	0.0046109
1479.13	0.00398047
1488.78	0.00415219
1498.42	0.00435856
1508.06	0.00424416
1517.7	0.00360276
1527.35	0.00402685
1536.99	0.00391391
1546.63	0.00411981
1556.27	0.00403293
1565.91	0.00429362
1575.56	0.0041572
1585.2	0.00466796
1594.84	0.00447078
1604.48	0.00444764
1614.13	0.0044254
1623.77	0.00397795
1633.41	0.00401926
1643.05	0.00393714
1652.7	0.00399051
1662.34	0.00429067
1671.98	0.00398222
1681.62	0.00393526
1691.27	0.00402472
1700.91	0.00329073
1710.55	0.00308085
1720.19	0.00333622
1729.84	0.00311913
1739.48	0.00266787
1749.12	0.00288959
1758.76	0.00307111
1768.4	0.00295402
1778.05	0.00285471
1787.69	0.0029084
1797.33	0.00195229
1806.97	0.00196326
1816.62	0.00161012
1826.26	0.00167621
1835.9	0.00146612
1845.54	0.00165131
1855.18	0.00177017
1864.83	0.000833126
1874.47	0.00114931
1884.11	0.000699847
1893.75	0.000938859
1903.4	0.00158774
1913.04	0.00149763
1922.68	0.000575713
1932.32	0.000361242
1941.97	-0.000495143
1951.61	-0.00110318
1961.25	-0.000478253
1970.89	-0.00280507
1980.54	0.000151958
1990.18	0.00039079
1999.82	-0.00012613
2009.46	-0.0002986
2019.11	-0.000357672
2028.75	0.000306704
2038.39	-0.000510467
2048.03	0.00212064
2057.67	0.00190555
2067.32	-7.60464e-05
2076.96	0.0032641
2086.6	0.00269351
2096.24	0.00406779
2105.89	0.00221628
2115.53	0.00241081
2125.17	0.00215742
2134.81	0.000401504
2144.45	-0.00130844
2154.1	-0.00423247
2163.74	0.00192255
2173.38	0.00281519
2183.02	0.000259438
2192.67	0.00411441
2202.31	0.00233663
2211.95	0.0027946
2221.59	0.00412878
2231.24	0.00329557
2240.88	0.00463262
2250.52	0.00442722
2260.16	0.00592384
2269.8	0.00540795
2279.45	0.00521049
2289.09	0.00504958
2298.73	0.00544149
2308.38	0.00581983
2318.02	0.00567125
2327.66	0.00448351
2337.3	0.0044388
2346.94	0.00468399
2356.59	0.00469484
2366.23	0.00388007
2375.87	0.00512348
2385.51	0.00381536
2395.16	0.00426377
2404.8	0.00433928
2414.44	0.00477366
2424.08	0.00473354
2433.72	0.00525984
2443.37	0.00454377
2453.01	0.00511425
2462.65	0.00574383
2472.29	0.00444442
2481.94	0.00485296
2491.58	0.00481393
2501.22	0.00522328
2510.86	0.00449312
2520.51	0.00421412
2530.15	0.0040292
2539.79	0.00483638
2549.43	0.00519805
2559.07	0.00505599
2568.72	0.00497217
2578.36	0.00433126
2588	0.00524852
2597.64	0.00501058
2607.29	0.00521235
2616.93	0.00504978
2626.57	0.00603215
2636.21	0.00444853
2645.86	0.00521723
2655.5	0.00527092
2665.14	0.00425477
2674.78	0.0041795
2684.43	0.00480379
2694.07	0.00431825
2703.71	0.00431565
2713.35	0.00389641
2722.99	0.00456502
2732.64	0.00512301
2742.28	0.00463713
2751.92	0.00537405
2761.56	0.00448506
2771.21	0.00443382
2780.85	0.00491733
2790.49	0.00456449
2800.13	0.00469116
2809.78	0.00445019
2819.42	0.00507854
2829.06	0.00495317
2838.7	0.00603489
2848.34	0.00494558
2857.99	0.00532568
2867.63	0.00522444
2877.27	0.00508055
2886.91	0.00490497
2896.56	0.00593174
2906.2	0.00521261
2915.84	0.00610932
2925.48	0.00529801
2935.13	0.00512241
2944.77	0.00461931
2954.41	0.00463323
2964.05	0.00500761
2973.7	0.00570199
2983.34	0.00493775
2992.98	0.00576554
3002.62	0.00544472
3012.26	0.00568737
3021.91	0.00572551
3031.55	0.00605363
3041.19	0.0051695
3050.83	0.00519183
3060.48	0.00634531
3070.12	0.00553081
3079.76	0.00598064
3089.4	0.00541731
3099.05	0.00534556
3108.69	0.00505973
3118.33	0.00475298
3127.97	0.00546654
3137.61	0.00624558
3147.26	0.00542666
3156.9	0.00684611
3166.54	0.00588485
3176.18	0.00598804
3185.83	0.00688965
3195.47	0.00615919
3205.11	0.00581089
3214.75	0.00566256
3224.4	0.00594779
3234.04	0.00590349
3243.68	0.0053838
3253.32	0.00515364
3262.97	0.00452191
3272.61	0.00534626
3282.25	0.00548499
3291.89	0.00572128
3301.53	0.00544241
3311.18	0.00595965
3320.82	0.00520095
3330.46	0.0053096
3340.1	0.00597295
3349.75	0.00515841
3359.39	0.00636962
3369.03	0.00557616
3378.67	0.00482423
3388.32	0.0063173
3397.96	0.00586415
3407.6	0.0046998
3417.24	0.00582251
3426.89	0.00671992
3436.53	0.00625474
3446.17	0.00458225
3455.81	0.00463295
3465.45	0.00659287
3475.1	0.00613716
3484.74	0.00683085
3494.38	0.00533351
3504.02	0.00516507
3513.67	0.00549254
3523.31	0.00619808
3532.95	0.0068736
3542.59	0.00639397
3552.24	0.00530999
3561.88	0.00605192
3571.52	0.00573573
3581.16	0.00545048
3590.8	0.00601731
3600.45	0.00537399
3610.09	0.00577883
3619.73	0.00489528
3629.37	0.00642668
3639.02	0.00496751
3648.66	0.0054235
3658.3	0.00594623
3667.94	0.0037125
3677.59	0.00511364
3687.23	0.00516836
3696.87	0.00544371
3706.51	0.00375202
3716.16	0.00496356
3725.8	0.00443459
3735.44	0.00329661
3745.08	0.0042309
3754.72	0.00408924
3764.37	0.00431543
3774.01	0.00391777
3783.65	0.00663807
3793.29	0.00468176
3802.94	0.00624782
3812.58	0.00645224
3822.22	0.00515408
3831.86	0.00512076
3841.51	0.0062738
3851.15	0.00555913
3860.79	0.00214841
3870.43	0.00457532
3880.07	0.00575532
3889.72	0.00665133
3899.36	0.00356012
3909	0.00511389
3918.64	0.00476897
3928.29	0.00420406
3937.93	0.00474646
3947.57	0.00386259
3957.21	0.00481307
3966.86	0.00528686
3976.5	0.00516638
3986.14	0.005794
3995.78	0.00652876
