Measurement: Infrared, Infrared Data Processed
Mineral: Libethenite
Rruff sample: R050613
Ideal chemistry: Cu^2+^_2_PO_4_(OH)
Locality: Libethen, Banskobystricky, Slovakia
Source: University of Arizona Mineral Museum
Description: Dark green wedge-shaped prismatic crystals
Measured chemistry: (Cu_0.98_Zn_0.02_)_2_(P_1.00_O_4_)((OH)_0.94_F_0.06_)
x	intensity
399.193	0.0500157
408.835	0.0481896
418.477	0.059904
428.12	0.0799718
437.762	0.119899
447.404	0.144252
457.047	0.101955
466.689	0.115963
476.331	0.146603
485.974	0.155725
495.616	0.1251
505.258	0.109777
514.901	0.130219
524.543	0.124352
534.185	0.134293
543.828	0.204344
553.47	0.206731
563.112	0.119339
572.755	0.0896473
582.397	0.108173
592.039	0.149846
601.682	0.205951
611.324	0.229474
620.966	0.196656
630.609	0.190089
640.251	0.145645
649.893	0.122244
659.536	0.0654045
669.178	0.0359751
678.82	0.0290936
688.463	0.0293394
698.105	0.0289934
707.747	0.030102
717.39	0.0329243
727.032	0.0366613
736.674	0.0432048
746.317	0.0504231
755.959	0.0585933
765.601	0.070207
775.244	0.0870287
784.886	0.10583
794.528	0.139636
804.171	0.184715
813.813	0.204154
823.455	0.153501
833.098	0.128725
842.74	0.13522
852.382	0.152064
862.025	0.184571
871.667	0.220733
881.309	0.254294
890.952	0.291238
900.594	0.329352
910.236	0.360112
919.879	0.375649
929.521	0.389587
939.163	0.37712
948.806	0.342851
958.448	0.313546
968.09	0.257081
977.733	0.238121
987.375	0.224454
997.017	0.215996
1006.66	0.225134
1016.3	0.260452
1025.94	0.311923
1035.59	0.344169
1045.23	0.329536
1054.87	0.288656
1064.51	0.245231
1074.16	0.20793
1083.8	0.174313
1093.44	0.14626
1103.08	0.120311
1112.72	0.0950759
1122.37	0.0696635
1132.01	0.0470833
1141.65	0.0297111
1151.3	0.0200423
1160.94	0.0157021
1170.58	0.012626
1180.22	0.0107965
1189.86	0.00943172
1199.51	0.00848393
1209.15	0.00647795
1218.79	0.00518907
1228.43	0.00465953
1238.08	0.00426747
1247.72	0.00419621
1257.36	0.00380538
1267	0.00389929
1276.64	0.00414913
1286.29	0.0042216
1295.93	0.00458047
1305.57	0.00491503
1315.21	0.00531537
1324.86	0.00546344
1334.5	0.00641156
1344.14	0.00749148
1353.78	0.00958601
1363.43	0.0138554
1373.07	0.0110938
1382.71	0.0103551
1392.35	0.0110743
1401.99	0.0122624
1411.64	0.0130953
1421.28	0.0142466
1430.92	0.015128
1440.57	0.0155511
1450.21	0.0162321
1459.85	0.0158405
1469.49	0.0150906
1479.13	0.0147173
1488.78	0.0143593
1498.42	0.0162774
1508.06	0.016428
1517.7	0.0125749
1527.35	0.0103901
1536.99	0.00998375
1546.63	0.00907465
1556.27	0.00917508
1565.91	0.00911923
1575.56	0.00899197
1585.2	0.0090694
1594.84	0.00853985
1604.48	0.00878806
1614.13	0.00884375
1623.77	0.00930283
1633.41	0.00931996
1643.05	0.00913038
1652.7	0.00952188
1662.34	0.00892129
1671.98	0.0091398
1681.62	0.00923099
1691.27	0.00901594
1700.91	0.00892289
1710.55	0.00922352
1720.19	0.00859751
1729.84	0.00935443
1739.48	0.00778451
1749.12	0.00828195
1758.76	0.00896461
1768.4	0.00886692
1778.05	0.0089012
1787.69	0.00998913
1797.33	0.00893028
1806.97	0.00914063
1816.62	0.00941013
1826.26	0.00881593
1835.9	0.00987553
1845.54	0.0107069
1855.18	0.00995779
1864.83	0.00977437
1874.47	0.0106221
1884.11	0.0104062
1893.75	0.0101106
1903.4	0.0115557
1913.04	0.00965671
1922.68	0.0114918
1932.32	0.0106435
1941.97	0.0119106
1951.61	0.00980253
1961.25	0.0131593
1970.89	0.0101798
1980.54	0.0088377
1990.18	0.0104477
1999.82	0.00892757
2009.46	0.00978092
2019.11	0.0114858
2028.75	0.0069575
2038.39	0.00969287
2048.03	0.00980472
2057.67	0.00889375
2067.32	0.0109585
2076.96	0.0114339
2086.6	0.0113058
2096.24	0.0123448
2105.89	0.0122021
2115.53	0.0121766
2125.17	0.0122381
2134.81	0.00981868
2144.45	0.00970937
2154.1	0.00525558
2163.74	0.0155092
2173.38	0.0121554
2183.02	0.0136989
2192.67	0.0141719
2202.31	0.0137798
2211.95	0.0133338
2221.59	0.0141822
2231.24	0.0146771
2240.88	0.0160484
2250.52	0.0146642
2260.16	0.0187842
2269.8	0.0188257
2279.45	0.019706
2289.09	0.0210066
2298.73	0.0210929
2308.38	0.0191681
2318.02	0.0217066
2327.66	0.0212409
2337.3	0.0229687
2346.94	0.0204957
2356.59	0.0239251
2366.23	0.022576
2375.87	0.0211451
2385.51	0.0206467
2395.16	0.019604
2404.8	0.0209969
2414.44	0.0213627
2424.08	0.0212827
2433.72	0.0206825
2443.37	0.0217883
2453.01	0.0224397
2462.65	0.0225132
2472.29	0.021125
2481.94	0.0231873
2491.58	0.0226146
2501.22	0.0225459
2510.86	0.02278
2520.51	0.0224401
2530.15	0.0214573
2539.79	0.0229403
2549.43	0.0227633
2559.07	0.0237523
2568.72	0.0243886
2578.36	0.0239656
2588	0.0247526
2597.64	0.0249559
2607.29	0.0245434
2616.93	0.0250074
2626.57	0.0248626
2636.21	0.0255438
2645.86	0.0256314
2655.5	0.0255151
2665.14	0.0255428
2674.78	0.0247625
2684.43	0.026423
2694.07	0.0264478
2703.71	0.0260877
2713.35	0.0258176
2722.99	0.0259495
2732.64	0.0257213
2742.28	0.0275982
2751.92	0.0280571
2761.56	0.0283691
2771.21	0.0270705
2780.85	0.0293693
2790.49	0.0280351
2800.13	0.0295147
2809.78	0.0290243
2819.42	0.0285709
2829.06	0.0289855
2838.7	0.0291331
2848.34	0.0282933
2857.99	0.0307943
2867.63	0.029446
2877.27	0.0317604
2886.91	0.0314355
2896.56	0.0310275
2906.2	0.0312652
2915.84	0.0297203
2925.48	0.0304469
2935.13	0.0309457
2944.77	0.0319365
2954.41	0.0317599
2964.05	0.0323634
2973.7	0.0329849
2983.34	0.0334021
2992.98	0.0332055
3002.62	0.0331923
3012.26	0.0332585
3021.91	0.0327049
3031.55	0.0355258
3041.19	0.0356153
3050.83	0.0340481
3060.48	0.0347979
3070.12	0.0353152
3079.76	0.0350636
3089.4	0.0343916
3099.05	0.0347212
3108.69	0.038138
3118.33	0.0376832
3127.97	0.0374189
3137.61	0.0363904
3147.26	0.0357905
3156.9	0.0402682
3166.54	0.0381801
3176.18	0.0379757
3185.83	0.0416747
3195.47	0.0406003
3205.11	0.0421815
3214.75	0.0373661
3224.4	0.0397119
3234.04	0.0423503
3243.68	0.0408999
3253.32	0.0412998
3262.97	0.0423907
3272.61	0.043756
3282.25	0.0429326
3291.89	0.0433224
3301.53	0.0449523
3311.18	0.0454371
3320.82	0.0453343
3330.46	0.0469768
3340.1	0.0479154
3349.75	0.0500967
3359.39	0.0493977
3369.03	0.0497387
3378.67	0.0497984
3388.32	0.051982
3397.96	0.0516193
3407.6	0.0519282
3417.24	0.0571089
3426.89	0.0637216
3436.53	0.0708748
3446.17	0.0793425
3455.81	0.0948528
3465.45	0.109805
3475.1	0.101942
3484.74	0.0720076
3494.38	0.0527567
3504.02	0.0432985
3513.67	0.041534
3523.31	0.041036
3532.95	0.0379492
3542.59	0.0327322
3552.24	0.0363293
3561.88	0.0349462
3571.52	0.0375785
3581.16	0.0321402
3590.8	0.0356837
3600.45	0.0307946
3610.09	0.0338287
3619.73	0.0360801
3629.37	0.0368589
3639.02	0.0354349
3648.66	0.0356966
3658.3	0.0377842
3667.94	0.0369245
3677.59	0.0317836
3687.23	0.0346405
3696.87	0.0366799
3706.51	0.0366846
3716.16	0.0406805
3725.8	0.0387599
3735.44	0.0405432
3745.08	0.0370109
3754.72	0.035694
3764.37	0.0404549
3774.01	0.0360031
3783.65	0.0365383
3793.29	0.0359118
3802.94	0.0370644
3812.58	0.0357076
3822.22	0.0426943
3831.86	0.0407201
3841.51	0.0421642
3851.15	0.0363433
3860.79	0.0386657
3870.43	0.0375124
3880.07	0.043828
3889.72	0.0389109
3899.36	0.0386729
3909	0.0369498
3918.64	0.0399424
3928.29	0.0384707
3937.93	0.0433024
3947.57	0.0430955
3957.21	0.0412313
3966.86	0.0427752
3976.5	0.0400876
3986.14	0.0446254
3995.78	0.0405307
