Measurement: Infrared, Infrared Data Processed
Mineral: Liebigite
Rruff sample: R050662
Ideal chemistry: Ca_2_(U^6+^O_2_)(CO_3_)_3_11H_2_O
Locality: Schwartzwaelder mine, Jefferson County, Colorado, USA
Source: University of Arizona Mineral Museum
Description: Yellowish-green flaky aggregate
Measured chemistry: Ca_2.00_(U_1.00_O_2_)(CO_3_)_3_Â·11H_2_O ; C not measured but estimated by stoichiometry
x	intensity
399.193	0.102831
408.835	0.112832
418.477	0.118433
428.12	0.121458
437.762	0.126858
447.404	0.129243
457.047	0.13285
466.689	0.135696
476.331	0.138131
485.974	0.139152
495.616	0.13904
505.258	0.140053
514.901	0.139916
524.543	0.13963
534.185	0.137753
543.828	0.135825
553.47	0.133332
563.112	0.131671
572.755	0.131575
582.397	0.128956
592.039	0.126335
601.682	0.123102
611.324	0.119449
620.966	0.115673
630.609	0.113005
640.251	0.108942
649.893	0.105391
659.536	0.102204
669.178	0.10047
678.82	0.096745
688.463	0.09176
698.105	0.0873484
707.747	0.0836608
717.39	0.0872162
727.032	0.0951952
736.674	0.101764
746.317	0.0940686
755.959	0.0714826
765.601	0.0560581
775.244	0.053619
784.886	0.0538523
794.528	0.0536513
804.171	0.0550879
813.813	0.0577943
823.455	0.0615442
833.098	0.0593872
842.74	0.0713078
852.382	0.0677005
862.025	0.0777197
871.667	0.109294
881.309	0.156529
890.952	0.156047
900.594	0.106756
910.236	0.0544004
919.879	0.0353839
929.521	0.0254044
939.163	0.0213124
948.806	0.0202262
958.448	0.0200367
968.09	0.0208089
977.733	0.0219193
987.375	0.0229933
997.017	0.0235608
1006.66	0.0238799
1016.3	0.0240433
1025.94	0.0245408
1035.59	0.024832
1045.23	0.0248811
1054.87	0.0269133
1064.51	0.0354697
1074.16	0.0340823
1083.8	0.0255238
1093.44	0.0233271
1103.08	0.0228772
1112.72	0.0227248
1122.37	0.0233489
1132.01	0.0241223
1141.65	0.0250046
1151.3	0.0246591
1160.94	0.0249273
1170.58	0.0255597
1180.22	0.0264166
1189.86	0.0275837
1199.51	0.0282529
1209.15	0.0296004
1218.79	0.0307518
1228.43	0.0320309
1238.08	0.033781
1247.72	0.0357799
1257.36	0.038476
1267	0.0414847
1276.64	0.0457078
1286.29	0.051046
1295.93	0.0584373
1305.57	0.0694804
1315.21	0.0851137
1324.86	0.106079
1334.5	0.138325
1344.14	0.176578
1353.78	0.205019
1363.43	0.261604
1373.07	0.352444
1382.71	0.303675
1392.35	0.218366
1401.99	0.208974
1411.64	0.17127
1421.28	0.122263
1430.92	0.0963972
1440.57	0.0871917
1450.21	0.0893152
1459.85	0.104173
1469.49	0.135345
1479.13	0.182832
1488.78	0.2542
1498.42	0.338977
1508.06	0.366286
1517.7	0.310915
1527.35	0.254564
1536.99	0.252269
1546.63	0.257865
1556.27	0.212373
1565.91	0.157327
1575.56	0.125557
1585.2	0.101189
1594.84	0.0827042
1604.48	0.0762784
1614.13	0.0869325
1623.77	0.0921913
1633.41	0.0846763
1643.05	0.0748952
1652.7	0.0672297
1662.34	0.055753
1671.98	0.0424384
1681.62	0.0318553
1691.27	0.0239707
1700.91	0.0194308
1710.55	0.0150486
1720.19	0.0123911
1729.84	0.0108755
1739.48	0.00934519
1749.12	0.00826566
1758.76	0.00817598
1768.4	0.00835016
1778.05	0.0080851
1787.69	0.00801307
1797.33	0.00793584
1806.97	0.00766674
1816.62	0.00806361
1826.26	0.00942174
1835.9	0.00782043
1845.54	0.00727278
1855.18	0.00711231
1864.83	0.00621102
1874.47	0.00673365
1884.11	0.00613429
1893.75	0.00724327
1903.4	0.00575469
1913.04	0.00640309
1922.68	0.00669734
1932.32	0.00603262
1941.97	0.0065156
1951.61	0.00677796
1961.25	0.00538572
1970.89	0.00642709
1980.54	0.00592612
1990.18	0.00540908
1999.82	0.00773259
2009.46	0.00547295
2019.11	0.00769855
2028.75	0.00696164
2038.39	0.00957781
2048.03	0.0088664
2057.67	0.00936819
2067.32	0.0106715
2076.96	0.0104789
2086.6	0.0116219
2096.24	0.0117363
2105.89	0.0121132
2115.53	0.0126389
2125.17	0.0123575
2134.81	0.00877618
2144.45	0.0105338
2154.1	0.00737487
2163.74	0.0108566
2173.38	0.0105416
2183.02	0.00952833
2192.67	0.0118936
2202.31	0.0127814
2211.95	0.0122642
2221.59	0.0127921
2231.24	0.0141499
2240.88	0.0129466
2250.52	0.0138607
2260.16	0.0145613
2269.8	0.0125856
2279.45	0.0135598
2289.09	0.0150414
2298.73	0.0149363
2308.38	0.0139583
2318.02	0.0150173
2327.66	0.0152077
2337.3	0.0156929
2346.94	0.0143997
2356.59	0.0167274
2366.23	0.0161752
2375.87	0.0136715
2385.51	0.0144203
2395.16	0.0140718
2404.8	0.0150165
2414.44	0.0149633
2424.08	0.0155099
2433.72	0.014577
2443.37	0.0157815
2453.01	0.0154968
2462.65	0.015502
2472.29	0.0147165
2481.94	0.0148293
2491.58	0.0135763
2501.22	0.0150325
2510.86	0.0140034
2520.51	0.0140992
2530.15	0.01432
2539.79	0.0130877
2549.43	0.0149832
2559.07	0.0142901
2568.72	0.0171228
2578.36	0.016102
2588	0.0180482
2597.64	0.0182877
2607.29	0.0195202
2616.93	0.0191174
2626.57	0.018826
2636.21	0.0184754
2645.86	0.0186726
2655.5	0.0186134
2665.14	0.0174789
2674.78	0.0173112
2684.43	0.0177764
2694.07	0.0178796
2703.71	0.0177989
2713.35	0.018491
2722.99	0.0192978
2732.64	0.0192297
2742.28	0.0185828
2751.92	0.0186296
2761.56	0.0197049
2771.21	0.0205526
2780.85	0.0220072
2790.49	0.0231952
2800.13	0.0234342
2809.78	0.0241226
2819.42	0.0255671
2829.06	0.0254049
2838.7	0.0271233
2848.34	0.028999
2857.99	0.0308793
2867.63	0.032227
2877.27	0.0337828
2886.91	0.0353878
2896.56	0.03675
2906.2	0.0376135
2915.84	0.0401802
2925.48	0.0404355
2935.13	0.0431876
2944.77	0.0420403
2954.41	0.0441606
2964.05	0.045842
2973.7	0.0462341
2983.34	0.0490115
2992.98	0.050793
3002.62	0.0515068
3012.26	0.0551022
3021.91	0.0581726
3031.55	0.060706
3041.19	0.0641504
3050.83	0.0678353
3060.48	0.0731284
3070.12	0.0748446
3079.76	0.0795547
3089.4	0.0831136
3099.05	0.0865885
3108.69	0.0924994
3118.33	0.0973126
3127.97	0.100338
3137.61	0.104778
3147.26	0.109321
3156.9	0.1145
3166.54	0.119752
3176.18	0.123994
3185.83	0.12783
3195.47	0.135976
3205.11	0.136775
3214.75	0.142979
3224.4	0.144485
3234.04	0.147759
3243.68	0.15005
3253.32	0.152061
3262.97	0.154484
3272.61	0.155547
3282.25	0.157381
3291.89	0.160049
3301.53	0.162484
3311.18	0.166111
3320.82	0.17041
3330.46	0.173997
3340.1	0.176885
3349.75	0.178034
3359.39	0.179565
3369.03	0.18044
3378.67	0.180473
3388.32	0.182527
3397.96	0.182437
3407.6	0.180574
3417.24	0.181821
3426.89	0.182129
3436.53	0.181502
3446.17	0.181057
3455.81	0.183895
3465.45	0.179562
3475.1	0.176532
3484.74	0.174451
3494.38	0.173169
3504.02	0.169126
3513.67	0.164789
3523.31	0.156943
3532.95	0.154602
3542.59	0.145525
3552.24	0.138264
3561.88	0.124823
3571.52	0.116204
3581.16	0.104238
3590.8	0.0947779
3600.45	0.0823101
3610.09	0.0676886
3619.73	0.0510017
3629.37	0.0419371
3639.02	0.0294416
3648.66	0.0229783
3658.3	0.0181235
3667.94	0.0152148
3677.59	0.0138236
3687.23	0.00853141
3696.87	0.00703149
3706.51	0.00899007
3716.16	0.00834088
3725.8	0.00852025
3735.44	0.00769656
3745.08	0.00794897
3754.72	0.00810784
3764.37	0.00788751
3774.01	0.00885138
3783.65	0.00722009
3793.29	0.00942681
3802.94	0.0118515
3812.58	0.00635438
3822.22	0.0111978
3831.86	0.00950504
3841.51	0.00965915
3851.15	0.0119256
3860.79	0.0133775
3870.43	0.0120386
3880.07	0.00938932
3889.72	0.0119221
3899.36	0.011999
3909	0.0111829
3918.64	0.0119647
3928.29	0.0130313
3937.93	0.0107032
3947.57	0.0125697
3957.21	0.0138198
3966.86	0.0152318
3976.5	0.0133138
3986.14	0.013098
3995.78	0.0131547
