Measurement: Infrared, Infrared Data Processed
Mineral: Lindgrenite
Rruff sample: R050213
Ideal chemistry: Cu^2+^_3_(Mo^6+^O_4_)_2_(OH)_2_
Locality: Chuquicamata mine, Calama, Antofagasta Province, Chile
Source: John Dagenais
Description: Green tabular single crystals
Measured chemistry: (Cu_2.99_Fe_0.01_)_Î£=3.00_(Mo^6+^_1.00_O_4_)_2_(OH)_2.00_ ; OH not measured but estimated by difference and charge balance
x	intensity
399.193	0.176861
408.835	0.18017
418.477	0.164944
428.12	0.158267
437.762	0.178286
447.404	0.183968
457.047	0.142176
466.689	0.102045
476.331	0.0740345
485.974	0.0730203
495.616	0.0807474
505.258	0.0920914
514.901	0.104245
524.543	0.117312
534.185	0.130933
543.828	0.146194
553.47	0.160712
563.112	0.174866
572.755	0.186585
582.397	0.197352
592.039	0.207042
601.682	0.21486
611.324	0.221706
620.966	0.22824
630.609	0.233467
640.251	0.239256
649.893	0.244586
659.536	0.249643
669.178	0.254783
678.82	0.2588
688.463	0.262977
698.105	0.266634
707.747	0.269966
717.39	0.272992
727.032	0.275127
736.674	0.276482
746.317	0.276297
755.959	0.273225
765.601	0.264554
775.244	0.245174
784.886	0.223154
794.528	0.216874
804.171	0.211876
813.813	0.198541
823.455	0.178814
833.098	0.167298
842.74	0.164379
852.382	0.155303
862.025	0.161882
871.667	0.150065
881.309	0.12938
890.952	0.108028
900.594	0.116753
910.236	0.107911
919.879	0.0816984
929.521	0.0907863
939.163	0.0971166
948.806	0.0953501
958.448	0.0868752
968.09	0.0719879
977.733	0.0518247
987.375	0.0268985
997.017	0.019392
1006.66	0.0177851
1016.3	0.0161938
1025.94	0.0151466
1035.59	0.0141412
1045.23	0.012881
1054.87	0.0120966
1064.51	0.0119846
1074.16	0.0121453
1083.8	0.0117419
1093.44	0.0116497
1103.08	0.0115812
1112.72	0.0115072
1122.37	0.0119218
1132.01	0.0126823
1141.65	0.0136596
1151.3	0.0154471
1160.94	0.016221
1170.58	0.0163651
1180.22	0.0169629
1189.86	0.018127
1199.51	0.0193781
1209.15	0.0202322
1218.79	0.0206144
1228.43	0.0209657
1238.08	0.0215024
1247.72	0.02182
1257.36	0.0225309
1267	0.0233553
1276.64	0.0241161
1286.29	0.0245964
1295.93	0.0255818
1305.57	0.026598
1315.21	0.0271917
1324.86	0.0277316
1334.5	0.0281225
1344.14	0.0288236
1353.78	0.0294591
1363.43	0.0301955
1373.07	0.0314596
1382.71	0.0325899
1392.35	0.0337941
1401.99	0.0352616
1411.64	0.036536
1421.28	0.0380461
1430.92	0.039405
1440.57	0.041183
1450.21	0.0428662
1459.85	0.0446977
1469.49	0.0458481
1479.13	0.0469595
1488.78	0.0487641
1498.42	0.0509255
1508.06	0.0534148
1517.7	0.0554662
1527.35	0.0572207
1536.99	0.059547
1546.63	0.0614805
1556.27	0.0640338
1565.91	0.0660721
1575.56	0.0686452
1585.2	0.0713789
1594.84	0.0737304
1604.48	0.0760859
1614.13	0.0787007
1623.77	0.0813191
1633.41	0.0830734
1643.05	0.0843736
1652.7	0.0869036
1662.34	0.0873785
1671.98	0.0883812
1681.62	0.089935
1691.27	0.091106
1700.91	0.0925807
1710.55	0.0922649
1720.19	0.0931624
1729.84	0.093402
1739.48	0.093582
1749.12	0.0935744
1758.76	0.094355
1768.4	0.0957772
1778.05	0.0971376
1787.69	0.0985318
1797.33	0.0995747
1806.97	0.0995739
1816.62	0.100607
1826.26	0.103438
1835.9	0.104769
1845.54	0.105516
1855.18	0.10576
1864.83	0.106965
1874.47	0.108715
1884.11	0.11012
1893.75	0.110538
1903.4	0.110888
1913.04	0.112333
1922.68	0.112673
1932.32	0.114723
1941.97	0.11593
1951.61	0.117859
1961.25	0.119886
1970.89	0.122515
1980.54	0.127978
1990.18	0.126524
1999.82	0.127545
2009.46	0.127799
2019.11	0.130769
2028.75	0.132234
2038.39	0.133388
2048.03	0.135102
2057.67	0.134972
2067.32	0.136145
2076.96	0.136746
2086.6	0.137513
2096.24	0.139227
2105.89	0.140933
2115.53	0.14202
2125.17	0.14127
2134.81	0.141445
2144.45	0.142632
2154.1	0.143784
2163.74	0.151574
2173.38	0.150035
2183.02	0.151808
2192.67	0.153003
2202.31	0.155343
2211.95	0.154939
2221.59	0.155532
2231.24	0.156496
2240.88	0.157896
2250.52	0.157763
2260.16	0.159678
2269.8	0.161355
2279.45	0.162388
2289.09	0.163043
2298.73	0.163081
2308.38	0.164056
2318.02	0.165607
2327.66	0.166088
2337.3	0.167063
2346.94	0.167344
2356.59	0.169252
2366.23	0.170123
2375.87	0.169936
2385.51	0.170647
2395.16	0.172079
2404.8	0.173094
2414.44	0.175337
2424.08	0.176078
2433.72	0.17725
2443.37	0.178157
2453.01	0.180518
2462.65	0.180928
2472.29	0.182116
2481.94	0.18308
2491.58	0.184168
2501.22	0.184954
2510.86	0.186199
2520.51	0.187322
2530.15	0.188931
2539.79	0.189712
2549.43	0.190619
2559.07	0.192073
2568.72	0.192885
2578.36	0.193595
2588	0.194811
2597.64	0.195655
2607.29	0.197019
2616.93	0.19765
2626.57	0.19861
2636.21	0.199367
2645.86	0.200014
2655.5	0.201048
2665.14	0.201634
2674.78	0.202531
2684.43	0.202902
2694.07	0.204313
2703.71	0.205316
2713.35	0.206426
2722.99	0.207249
2732.64	0.20874
2742.28	0.209769
2751.92	0.21061
2761.56	0.211542
2771.21	0.212697
2780.85	0.213862
2790.49	0.21481
2800.13	0.216408
2809.78	0.217547
2819.42	0.218784
2829.06	0.220578
2838.7	0.222708
2848.34	0.225756
2857.99	0.225815
2867.63	0.22642
2877.27	0.227479
2886.91	0.228745
2896.56	0.231234
2906.2	0.233919
2915.84	0.237238
2925.48	0.238165
2935.13	0.235867
2944.77	0.235299
2954.41	0.236879
2964.05	0.23662
2973.7	0.236008
2983.34	0.236247
2992.98	0.237521
3002.62	0.23898
3012.26	0.240993
3021.91	0.242869
3031.55	0.244466
3041.19	0.245998
3050.83	0.247639
3060.48	0.248738
3070.12	0.250488
3079.76	0.253395
3089.4	0.254872
3099.05	0.257414
3108.69	0.259232
3118.33	0.261235
3127.97	0.263354
3137.61	0.266112
3147.26	0.268273
3156.9	0.272307
3166.54	0.273877
3176.18	0.276631
3185.83	0.279384
3195.47	0.281744
3205.11	0.284529
3214.75	0.287901
3224.4	0.291104
3234.04	0.295785
3243.68	0.29933
3253.32	0.302524
3262.97	0.304267
3272.61	0.30442
3282.25	0.304765
3291.89	0.306502
3301.53	0.312056
3311.18	0.320948
3320.82	0.332
3330.46	0.344469
3340.1	0.345729
3349.75	0.310574
3359.39	0.27717
3369.03	0.264834
3378.67	0.263867
3388.32	0.266193
3397.96	0.268084
3407.6	0.265329
3417.24	0.257956
3426.89	0.248149
3436.53	0.242416
3446.17	0.239849
3455.81	0.237809
3465.45	0.237832
3475.1	0.236793
3484.74	0.237054
3494.38	0.23639
3504.02	0.236402
3513.67	0.236801
3523.31	0.236841
3532.95	0.237418
3542.59	0.237719
3552.24	0.239098
3561.88	0.239339
3571.52	0.239956
3581.16	0.241126
3590.8	0.241545
3600.45	0.24333
3610.09	0.244754
3619.73	0.246532
3629.37	0.248154
3639.02	0.247543
3648.66	0.25051
3658.3	0.249977
3667.94	0.250689
3677.59	0.250978
3687.23	0.253159
3696.87	0.253234
3706.51	0.254256
3716.16	0.255786
3725.8	0.257814
3735.44	0.25848
3745.08	0.259615
3754.72	0.258709
3764.37	0.259969
3774.01	0.261101
3783.65	0.260335
3793.29	0.260808
3802.94	0.262093
3812.58	0.262862
3822.22	0.263778
3831.86	0.264869
3841.51	0.26457
3851.15	0.267516
3860.79	0.265937
3870.43	0.26722
3880.07	0.266223
3889.72	0.267916
3899.36	0.268737
3909	0.267869
3918.64	0.269137
3928.29	0.269145
3937.93	0.269694
3947.57	0.270083
3957.21	0.270737
3966.86	0.271942
3976.5	0.272586
3986.14	0.274044
3995.78	0.273708
