Measurement: Infrared, Infrared Data Processed
Mineral: Liroconite
Rruff sample: R050535
Ideal chemistry: Cu^2+^_2_AlAs^5+^O_4_(OH)_4_4H_2_O
Locality: Wheal Gorland, St. Day, Cornwall, England
Source: University of Arizona Mineral Museum
Description: Blue tabular crystals
x	intensity
399.193	0.431909
408.835	0.407788
418.477	0.364299
428.12	0.327278
437.762	0.30935
447.404	0.304853
457.047	0.298072
466.689	0.302887
476.331	0.317762
485.974	0.334719
495.616	0.35465
505.258	0.368632
514.901	0.363055
524.543	0.335745
534.185	0.301101
543.828	0.268394
553.47	0.245045
563.112	0.23756
572.755	0.229925
582.397	0.208852
592.039	0.184394
601.682	0.169546
611.324	0.16348
620.966	0.159081
630.609	0.154495
640.251	0.142302
649.893	0.122244
659.536	0.111109
669.178	0.106727
678.82	0.105909
688.463	0.106925
698.105	0.107984
707.747	0.109225
717.39	0.110636
727.032	0.111331
736.674	0.112848
746.317	0.117555
755.959	0.124618
765.601	0.141351
775.244	0.166764
784.886	0.199545
794.528	0.208522
804.171	0.189001
813.813	0.164909
823.455	0.150997
833.098	0.132441
842.74	0.110025
852.382	0.0876597
862.025	0.082933
871.667	0.100172
881.309	0.108271
890.952	0.0911573
900.594	0.0592069
910.236	0.0421611
919.879	0.0350335
929.521	0.0339291
939.163	0.0360875
948.806	0.0352462
958.448	0.0350431
968.09	0.0400281
977.733	0.0462548
987.375	0.0584171
997.017	0.0817659
1006.66	0.0988423
1016.3	0.106166
1025.94	0.101097
1035.59	0.081542
1045.23	0.0577431
1054.87	0.0400404
1064.51	0.0299782
1074.16	0.0265385
1083.8	0.0284368
1093.44	0.0356309
1103.08	0.0335794
1112.72	0.0223348
1122.37	0.0172073
1132.01	0.0148386
1141.65	0.0143385
1151.3	0.0145234
1160.94	0.016261
1170.58	0.0187525
1180.22	0.0220852
1189.86	0.0198309
1199.51	0.0133716
1209.15	0.0100996
1218.79	0.00871638
1228.43	0.00851005
1238.08	0.00813359
1247.72	0.00788853
1257.36	0.00823644
1267	0.00839697
1276.64	0.00837403
1286.29	0.00876804
1295.93	0.00885765
1305.57	0.00904814
1315.21	0.00880209
1324.86	0.0088381
1334.5	0.00898194
1344.14	0.00866493
1353.78	0.0087056
1363.43	0.00910059
1373.07	0.00888842
1382.71	0.00946796
1392.35	0.00971416
1401.99	0.00995408
1411.64	0.0101665
1421.28	0.0102927
1430.92	0.0107685
1440.57	0.0106304
1450.21	0.0103571
1459.85	0.0100665
1469.49	0.010024
1479.13	0.010598
1488.78	0.0109266
1498.42	0.0108852
1508.06	0.0106409
1517.7	0.0112234
1527.35	0.0113738
1536.99	0.0113891
1546.63	0.0121517
1556.27	0.0124144
1565.91	0.0132418
1575.56	0.0137715
1585.2	0.0144145
1594.84	0.0154096
1604.48	0.0166857
1614.13	0.0185215
1623.77	0.0211133
1633.41	0.0239497
1643.05	0.0246532
1652.7	0.0209626
1662.34	0.0169495
1671.98	0.0136772
1681.62	0.011587
1691.27	0.0105359
1700.91	0.00906986
1710.55	0.00762755
1720.19	0.0072403
1729.84	0.00656091
1739.48	0.0055782
1749.12	0.00570099
1758.76	0.00680304
1768.4	0.00696499
1778.05	0.00661241
1787.69	0.00695611
1797.33	0.00709417
1806.97	0.00685703
1816.62	0.00655734
1826.26	0.00696893
1835.9	0.00701261
1845.54	0.00723679
1855.18	0.00716022
1864.83	0.00666076
1874.47	0.00723649
1884.11	0.00693234
1893.75	0.00720378
1903.4	0.00755327
1913.04	0.00674135
1922.68	0.00665729
1932.32	0.00768265
1941.97	0.00686932
1951.61	0.00610081
1961.25	0.00588205
1970.89	0.00640798
1980.54	0.00848319
1990.18	0.00789143
1999.82	0.00675474
2009.46	0.00735324
2019.11	0.00677706
2028.75	0.00578439
2038.39	0.00698143
2048.03	0.00824127
2057.67	0.00713964
2067.32	0.00759305
2076.96	0.0084494
2086.6	0.0093891
2096.24	0.00837241
2105.89	0.00984995
2115.53	0.00926699
2125.17	0.00822202
2134.81	0.00679903
2144.45	0.00763719
2154.1	0.00682673
2163.74	0.0117002
2173.38	0.0102977
2183.02	0.00998958
2192.67	0.00972429
2202.31	0.00897619
2211.95	0.00918349
2221.59	0.00803698
2231.24	0.00888988
2240.88	0.00891223
2250.52	0.0080333
2260.16	0.00846366
2269.8	0.00844214
2279.45	0.00984676
2289.09	0.00956377
2298.73	0.00927112
2308.38	0.00957604
2318.02	0.0104196
2327.66	0.0100502
2337.3	0.0102306
2346.94	0.00963342
2356.59	0.00916874
2366.23	0.00838585
2375.87	0.00895441
2385.51	0.00822536
2395.16	0.00780971
2404.8	0.00823526
2414.44	0.00837069
2424.08	0.00870956
2433.72	0.00892403
2443.37	0.00899256
2453.01	0.0084542
2462.65	0.0089219
2472.29	0.00810972
2481.94	0.00870127
2491.58	0.00844031
2501.22	0.00891138
2510.86	0.00826079
2520.51	0.00841643
2530.15	0.00831063
2539.79	0.00842149
2549.43	0.00963847
2559.07	0.00869499
2568.72	0.00837822
2578.36	0.00903295
2588	0.00888879
2597.64	0.00934959
2607.29	0.0088237
2616.93	0.00901895
2626.57	0.00920958
2636.21	0.00938206
2645.86	0.00936662
2655.5	0.00941923
2665.14	0.0089469
2674.78	0.00948039
2684.43	0.00959697
2694.07	0.00910394
2703.71	0.00952104
2713.35	0.00995733
2722.99	0.00992735
2732.64	0.00971184
2742.28	0.00987176
2751.92	0.0109074
2761.56	0.0106798
2771.21	0.0108219
2780.85	0.0107998
2790.49	0.010822
2800.13	0.0113025
2809.78	0.0114415
2819.42	0.0113545
2829.06	0.0118432
2838.7	0.011964
2848.34	0.0122703
2857.99	0.0123352
2867.63	0.0126575
2877.27	0.0129968
2886.91	0.0132144
2896.56	0.0137013
2906.2	0.0137061
2915.84	0.0140939
2925.48	0.0142425
2935.13	0.0151555
2944.77	0.015353
2954.41	0.0156911
2964.05	0.0166684
2973.7	0.0169079
2983.34	0.0173952
2992.98	0.0184134
3002.62	0.0187498
3012.26	0.0195421
3021.91	0.020457
3031.55	0.019832
3041.19	0.0206064
3050.83	0.0217948
3060.48	0.022326
3070.12	0.0229117
3079.76	0.0239012
3089.4	0.025222
3099.05	0.0258895
3108.69	0.0269085
3118.33	0.0281511
3127.97	0.0297981
3137.61	0.0300829
3147.26	0.0312354
3156.9	0.0323981
3166.54	0.0341221
3176.18	0.0353093
3185.83	0.0363137
3195.47	0.0379416
3205.11	0.0387571
3214.75	0.039161
3224.4	0.0400342
3234.04	0.0402455
3243.68	0.0404362
3253.32	0.0403794
3262.97	0.0401653
3272.61	0.0411178
3282.25	0.0409918
3291.89	0.0416281
3301.53	0.0412709
3311.18	0.0412735
3320.82	0.0396706
3330.46	0.0400151
3340.1	0.0391727
3349.75	0.0375794
3359.39	0.0369767
3369.03	0.0356861
3378.67	0.0341987
3388.32	0.0345708
3397.96	0.0330963
3407.6	0.0319171
3417.24	0.0323893
3426.89	0.0322595
3436.53	0.0314642
3446.17	0.0312942
3455.81	0.0328185
3465.45	0.032519
3475.1	0.0327585
3484.74	0.0340747
3494.38	0.0364696
3504.02	0.0363353
3513.67	0.0363645
3523.31	0.032997
3532.95	0.0283924
3542.59	0.0249047
3552.24	0.0205453
3561.88	0.0165952
3571.52	0.0128493
3581.16	0.0109456
3590.8	0.00946918
3600.45	0.0065233
3610.09	0.00643105
3619.73	0.00538647
3629.37	0.00373311
3639.02	0.0042084
3648.66	0.0027533
3658.3	0.00324765
3667.94	0.00210886
3677.59	0.00249166
3687.23	0.0022757
3696.87	0.00412279
3706.51	0.00261554
3716.16	0.0031121
3725.8	0.00306946
3735.44	0.00323216
3745.08	0.00290988
3754.72	0.00172337
3764.37	0.00376319
3774.01	0.00391231
3783.65	0.00257744
3793.29	0.00409971
3802.94	0.00329109
3812.58	0.00401249
3822.22	0.0042261
3831.86	0.00271602
3841.51	0.00389536
3851.15	0.00420817
3860.79	0.00434295
3870.43	0.00381025
3880.07	0.00316781
3889.72	0.00426076
3899.36	0.00385651
3909	0.00479724
3918.64	0.00416849
3928.29	0.00346894
3937.93	0.00386203
3947.57	0.00409513
3957.21	0.00459684
3966.86	0.00352786
3976.5	0.00354379
3986.14	0.00303429
3995.78	0.00507596
