Measurement: Infrared, Infrared Data Processed
Mineral: Magnetoplumbite
Rruff sample: R060074
Ideal chemistry: Pb^2+^Fe^3+^_12_O_19_
Locality: Langban, Filipstad, Varmland, Sweden
Source: University of Arizona Mineral Museum
Description: Black granular and massive
Measured chemistry: Pb_1.00_(Fe^3+^_7.48_Mn^3+^_3.09_Ti_0.60_Mn^2+^_0.48_Al_0.23_Zn_0.12_)_Î£=12_O_19_
x	intensity
399.193	0.240411
408.835	0.244602
418.477	0.241902
428.12	0.232517
437.762	0.226493
447.404	0.216728
457.047	0.20747
466.689	0.194711
476.331	0.178379
485.974	0.166303
495.616	0.165379
505.258	0.172583
514.901	0.185104
524.543	0.19852
534.185	0.212983
543.828	0.226737
553.47	0.237538
563.112	0.242346
572.755	0.24119
582.397	0.23304
592.039	0.222248
601.682	0.212005
611.324	0.198505
620.966	0.179869
630.609	0.161076
640.251	0.143681
649.893	0.126662
659.536	0.111974
669.178	0.0982682
678.82	0.0860615
688.463	0.0755943
698.105	0.066046
707.747	0.0577503
717.39	0.0510355
727.032	0.0468369
736.674	0.0443028
746.317	0.0423979
755.959	0.0406755
765.601	0.0385979
775.244	0.0364179
784.886	0.0345675
794.528	0.0336524
804.171	0.0336196
813.813	0.0341831
823.455	0.0348497
833.098	0.035109
842.74	0.0357685
852.382	0.036925
862.025	0.0379676
871.667	0.0397111
881.309	0.0422082
890.952	0.0449366
900.594	0.0483199
910.236	0.0518885
919.879	0.0551383
929.521	0.0593287
939.163	0.0652875
948.806	0.0733596
958.448	0.0801749
968.09	0.0851818
977.733	0.0898452
987.375	0.0947694
997.017	0.0951105
1006.66	0.0904009
1016.3	0.0878461
1025.94	0.0865235
1035.59	0.0851637
1045.23	0.084642
1054.87	0.084746
1064.51	0.0846602
1074.16	0.0843767
1083.8	0.0838692
1093.44	0.0833804
1103.08	0.0840342
1112.72	0.0853789
1122.37	0.0867376
1132.01	0.0883922
1141.65	0.0904115
1151.3	0.092165
1160.94	0.0939153
1170.58	0.0956006
1180.22	0.0975558
1189.86	0.0994744
1199.51	0.101398
1209.15	0.103255
1218.79	0.104859
1228.43	0.106776
1238.08	0.108419
1247.72	0.110513
1257.36	0.112684
1267	0.11474
1276.64	0.117736
1286.29	0.118855
1295.93	0.120107
1305.57	0.121992
1315.21	0.123543
1324.86	0.125197
1334.5	0.126987
1344.14	0.128804
1353.78	0.130398
1363.43	0.131717
1373.07	0.133684
1382.71	0.135894
1392.35	0.137799
1401.99	0.140035
1411.64	0.142085
1421.28	0.142784
1430.92	0.14472
1440.57	0.146039
1450.21	0.146897
1459.85	0.147244
1469.49	0.147977
1479.13	0.149716
1488.78	0.149987
1498.42	0.15095
1508.06	0.150221
1517.7	0.152861
1527.35	0.154555
1536.99	0.155202
1546.63	0.157216
1556.27	0.156447
1565.91	0.159368
1575.56	0.158279
1585.2	0.162035
1594.84	0.163099
1604.48	0.164292
1614.13	0.164391
1623.77	0.164988
1633.41	0.166081
1643.05	0.167634
1652.7	0.162749
1662.34	0.16896
1671.98	0.169688
1681.62	0.170483
1691.27	0.17231
1700.91	0.169473
1710.55	0.173918
1720.19	0.173975
1729.84	0.175385
1739.48	0.174116
1749.12	0.174455
1758.76	0.176966
1768.4	0.177489
1778.05	0.17937
1787.69	0.180633
1797.33	0.181331
1806.97	0.182654
1816.62	0.183397
1826.26	0.184363
1835.9	0.18539
1845.54	0.185498
1855.18	0.187954
1864.83	0.18844
1874.47	0.189041
1884.11	0.190146
1893.75	0.191157
1903.4	0.192128
1913.04	0.193308
1922.68	0.193731
1932.32	0.195652
1941.97	0.194895
1951.61	0.195371
1961.25	0.19747
1970.89	0.197252
1980.54	0.199129
1990.18	0.198471
1999.82	0.200134
2009.46	0.200463
2019.11	0.201319
2028.75	0.202238
2038.39	0.20421
2048.03	0.205341
2057.67	0.205313
2067.32	0.205629
2076.96	0.206346
2086.6	0.206949
2096.24	0.207486
2105.89	0.207889
2115.53	0.208779
2125.17	0.208597
2134.81	0.210169
2144.45	0.210698
2154.1	0.210881
2163.74	0.213213
2173.38	0.212627
2183.02	0.213002
2192.67	0.213859
2202.31	0.214471
2211.95	0.216533
2221.59	0.216538
2231.24	0.216969
2240.88	0.216802
2250.52	0.217386
2260.16	0.217703
2269.8	0.218797
2279.45	0.219203
2289.09	0.218839
2298.73	0.218777
2308.38	0.219155
2318.02	0.21992
2327.66	0.219983
2337.3	0.220779
2346.94	0.220486
2356.59	0.221559
2366.23	0.222367
2375.87	0.222326
2385.51	0.222516
2395.16	0.223
2404.8	0.223521
2414.44	0.223818
2424.08	0.224722
2433.72	0.224956
2443.37	0.225964
2453.01	0.226062
2462.65	0.226432
2472.29	0.226681
2481.94	0.22679
2491.58	0.227542
2501.22	0.227698
2510.86	0.228399
2520.51	0.228696
2530.15	0.229466
2539.79	0.229369
2549.43	0.23015
2559.07	0.230244
2568.72	0.231445
2578.36	0.231068
2588	0.231792
2597.64	0.231549
2607.29	0.232514
2616.93	0.232851
2626.57	0.232786
2636.21	0.233039
2645.86	0.233475
2655.5	0.233424
2665.14	0.233658
2674.78	0.2346
2684.43	0.235269
2694.07	0.235079
2703.71	0.236065
2713.35	0.236799
2722.99	0.236903
2732.64	0.237307
2742.28	0.237909
2751.92	0.238497
2761.56	0.239136
2771.21	0.239484
2780.85	0.240107
2790.49	0.240502
2800.13	0.240694
2809.78	0.241163
2819.42	0.241923
2829.06	0.242577
2838.7	0.242863
2848.34	0.239824
2857.99	0.241888
2867.63	0.243325
2877.27	0.243606
2886.91	0.24425
2896.56	0.243793
2906.2	0.243584
2915.84	0.240885
2925.48	0.242329
2935.13	0.243799
2944.77	0.244276
2954.41	0.246061
2964.05	0.246324
2973.7	0.245924
2983.34	0.246503
2992.98	0.246541
3002.62	0.246808
3012.26	0.247779
3021.91	0.248078
3031.55	0.248313
3041.19	0.248795
3050.83	0.249437
3060.48	0.24977
3070.12	0.250225
3079.76	0.250867
3089.4	0.250774
3099.05	0.251319
3108.69	0.251842
3118.33	0.252053
3127.97	0.252671
3137.61	0.252502
3147.26	0.253249
3156.9	0.253939
3166.54	0.254439
3176.18	0.254122
3185.83	0.255096
3195.47	0.254435
3205.11	0.254659
3214.75	0.254856
3224.4	0.255449
3234.04	0.256264
3243.68	0.256081
3253.32	0.255977
3262.97	0.256651
3272.61	0.257428
3282.25	0.25686
3291.89	0.257944
3301.53	0.258177
3311.18	0.258575
3320.82	0.258517
3330.46	0.259201
3340.1	0.259097
3349.75	0.259983
3359.39	0.259764
3369.03	0.25931
3378.67	0.260059
3388.32	0.259856
3397.96	0.260344
3407.6	0.260199
3417.24	0.260493
3426.89	0.260841
3436.53	0.26087
3446.17	0.260669
3455.81	0.260492
3465.45	0.261352
3475.1	0.26074
3484.74	0.261952
3494.38	0.260433
3504.02	0.261851
3513.67	0.26134
3523.31	0.262352
3532.95	0.26174
3542.59	0.262347
3552.24	0.262736
3561.88	0.263418
3571.52	0.263237
3581.16	0.26205
3590.8	0.263269
3600.45	0.264078
3610.09	0.264227
3619.73	0.264868
3629.37	0.26706
3639.02	0.265102
3648.66	0.267589
3658.3	0.265026
3667.94	0.267209
3677.59	0.266046
3687.23	0.266103
3696.87	0.265458
3706.51	0.266734
3716.16	0.266606
3725.8	0.267328
3735.44	0.269297
3745.08	0.267585
3754.72	0.267579
3764.37	0.268452
3774.01	0.267236
3783.65	0.267772
3793.29	0.268524
3802.94	0.268876
3812.58	0.269107
3822.22	0.270386
3831.86	0.269714
3841.51	0.271473
3851.15	0.271173
3860.79	0.270346
3870.43	0.271966
3880.07	0.271821
3889.72	0.271563
3899.36	0.272023
3909	0.270854
3918.64	0.272116
3928.29	0.272045
3937.93	0.271901
3947.57	0.272822
3957.21	0.272831
3966.86	0.273402
3976.5	0.2739
3986.14	0.274005
3995.78	0.27445
