Measurement: Infrared, Infrared Data Processed
Mineral: Magnetite
Rruff sample: R080025
Ideal chemistry: Fe^2+^Fe^3+^_2_O_4_
Locality: 2500' level, Zinc Corporation of America mine #4, Balmat, New York, USA
Source: William W. Pinch
Description: Black cubes
x	intensity
399.193	0.297842
408.835	0.292061
418.477	0.29207
428.12	0.298839
437.762	0.297992
447.404	0.304161
457.047	0.305315
466.689	0.306294
476.331	0.309708
485.974	0.313383
495.616	0.319007
505.258	0.326166
514.901	0.331298
524.543	0.336346
534.185	0.341342
543.828	0.347858
553.47	0.346574
563.112	0.340948
572.755	0.333967
582.397	0.329148
592.039	0.326346
601.682	0.32418
611.324	0.325337
620.966	0.324815
630.609	0.326723
640.251	0.329814
649.893	0.330333
659.536	0.33084
669.178	0.333115
678.82	0.332254
688.463	0.332503
698.105	0.333951
707.747	0.335073
717.39	0.337006
727.032	0.338429
736.674	0.340133
746.317	0.341798
755.959	0.344217
765.601	0.346186
775.244	0.348037
784.886	0.350822
794.528	0.351889
804.171	0.354393
813.813	0.356336
823.455	0.356967
833.098	0.357835
842.74	0.359538
852.382	0.360975
862.025	0.36239
871.667	0.364113
881.309	0.366225
890.952	0.367958
900.594	0.369706
910.236	0.370994
919.879	0.373009
929.521	0.374193
939.163	0.376237
948.806	0.377616
958.448	0.379588
968.09	0.381301
977.733	0.382325
987.375	0.38421
997.017	0.385412
1006.66	0.387497
1016.3	0.388614
1025.94	0.389259
1035.59	0.389788
1045.23	0.390058
1054.87	0.390411
1064.51	0.392345
1074.16	0.394067
1083.8	0.395817
1093.44	0.397806
1103.08	0.39944
1112.72	0.401206
1122.37	0.402267
1132.01	0.403388
1141.65	0.405329
1151.3	0.405332
1160.94	0.403348
1170.58	0.400553
1180.22	0.397995
1189.86	0.397019
1199.51	0.396325
1209.15	0.396927
1218.79	0.399151
1228.43	0.400813
1238.08	0.402417
1247.72	0.403842
1257.36	0.404985
1267	0.406004
1276.64	0.407446
1286.29	0.408624
1295.93	0.40971
1305.57	0.411031
1315.21	0.412017
1324.86	0.413183
1334.5	0.413731
1344.14	0.415044
1353.78	0.415578
1363.43	0.416366
1373.07	0.417346
1382.71	0.41821
1392.35	0.418857
1401.99	0.419574
1411.64	0.42023
1421.28	0.42117
1430.92	0.421782
1440.57	0.422432
1450.21	0.423169
1459.85	0.423718
1469.49	0.423824
1479.13	0.425161
1488.78	0.426445
1498.42	0.427413
1508.06	0.428799
1517.7	0.429315
1527.35	0.430009
1536.99	0.430648
1546.63	0.431188
1556.27	0.432228
1565.91	0.432541
1575.56	0.433575
1585.2	0.433273
1594.84	0.4339
1604.48	0.434586
1614.13	0.435051
1623.77	0.43558
1633.41	0.435924
1643.05	0.436525
1652.7	0.437859
1662.34	0.437183
1671.98	0.43784
1681.62	0.438206
1691.27	0.438791
1700.91	0.44029
1710.55	0.439893
1720.19	0.440888
1729.84	0.441114
1739.48	0.440578
1749.12	0.440807
1758.76	0.441348
1768.4	0.442256
1778.05	0.442329
1787.69	0.442685
1797.33	0.442951
1806.97	0.443368
1816.62	0.442867
1826.26	0.443675
1835.9	0.443591
1845.54	0.444113
1855.18	0.443421
1864.83	0.444616
1874.47	0.444239
1884.11	0.443461
1893.75	0.445814
1903.4	0.445607
1913.04	0.445622
1922.68	0.446228
1932.32	0.446495
1941.97	0.446507
1951.61	0.446047
1961.25	0.448637
1970.89	0.445583
1980.54	0.44787
1990.18	0.447833
1999.82	0.451963
2009.46	0.451617
2019.11	0.451208
2028.75	0.451552
2038.39	0.447971
2048.03	0.45161
2057.67	0.453923
2067.32	0.45162
2076.96	0.453721
2086.6	0.454712
2096.24	0.455244
2105.89	0.456977
2115.53	0.456693
2125.17	0.456474
2134.81	0.455557
2144.45	0.455371
2154.1	0.455665
2163.74	0.457348
2173.38	0.456585
2183.02	0.459267
2192.67	0.45763
2202.31	0.460106
2211.95	0.459388
2221.59	0.460286
2231.24	0.46114
2240.88	0.463836
2250.52	0.464055
2260.16	0.461642
2269.8	0.462359
2279.45	0.463981
2289.09	0.464755
2298.73	0.464001
2308.38	0.464783
2318.02	0.466109
2327.66	0.465853
2337.3	0.466129
2346.94	0.46634
2356.59	0.46622
2366.23	0.466428
2375.87	0.466214
2385.51	0.466807
2395.16	0.466534
2404.8	0.465541
2414.44	0.467115
2424.08	0.467204
2433.72	0.467289
2443.37	0.467147
2453.01	0.467741
2462.65	0.467388
2472.29	0.468525
2481.94	0.468552
2491.58	0.469161
2501.22	0.469606
2510.86	0.46917
2520.51	0.470345
2530.15	0.470438
2539.79	0.470679
2549.43	0.470853
2559.07	0.471083
2568.72	0.471855
2578.36	0.472547
2588	0.473307
2597.64	0.473053
2607.29	0.474669
2616.93	0.475194
2626.57	0.475921
2636.21	0.47706
2645.86	0.478209
2655.5	0.478338
2665.14	0.478873
2674.78	0.479188
2684.43	0.479444
2694.07	0.480128
2703.71	0.479798
2713.35	0.480694
2722.99	0.480978
2732.64	0.480995
2742.28	0.480578
2751.92	0.48166
2761.56	0.481988
2771.21	0.482086
2780.85	0.481944
2790.49	0.482517
2800.13	0.482805
2809.78	0.482836
2819.42	0.483172
2829.06	0.483478
2838.7	0.484288
2848.34	0.484632
2857.99	0.484152
2867.63	0.483311
2877.27	0.483457
2886.91	0.484172
2896.56	0.484742
2906.2	0.485636
2915.84	0.484884
2925.48	0.484216
2935.13	0.48275
2944.77	0.482307
2954.41	0.481979
2964.05	0.481523
2973.7	0.482012
2983.34	0.482438
2992.98	0.483174
3002.62	0.482503
3012.26	0.483401
3021.91	0.483551
3031.55	0.484434
3041.19	0.484984
3050.83	0.484321
3060.48	0.484714
3070.12	0.484924
3079.76	0.485335
3089.4	0.485808
3099.05	0.485606
3108.69	0.486146
3118.33	0.486751
3127.97	0.486117
3137.61	0.486797
3147.26	0.486558
3156.9	0.486391
3166.54	0.487482
3176.18	0.486883
3185.83	0.488008
3195.47	0.487981
3205.11	0.488635
3214.75	0.488937
3224.4	0.488181
3234.04	0.488714
3243.68	0.489124
3253.32	0.488802
3262.97	0.489521
3272.61	0.490305
3282.25	0.490487
3291.89	0.490219
3301.53	0.490883
3311.18	0.49103
3320.82	0.490641
3330.46	0.4911
3340.1	0.491748
3349.75	0.491226
3359.39	0.490667
3369.03	0.492049
3378.67	0.491507
3388.32	0.490916
3397.96	0.490367
3407.6	0.491481
3417.24	0.491262
3426.89	0.490596
3436.53	0.490829
3446.17	0.491692
3455.81	0.491155
3465.45	0.491727
3475.1	0.49176
3484.74	0.49194
3494.38	0.493058
3504.02	0.492498
3513.67	0.492065
3523.31	0.492268
3532.95	0.492181
3542.59	0.492247
3552.24	0.492733
3561.88	0.492649
3571.52	0.492722
3581.16	0.492595
3590.8	0.49236
3600.45	0.49329
3610.09	0.492846
3619.73	0.492853
3629.37	0.49536
3639.02	0.493865
3648.66	0.494382
3658.3	0.495111
3667.94	0.495373
3677.59	0.496496
3687.23	0.496975
3696.87	0.497044
3706.51	0.496008
3716.16	0.497614
3725.8	0.49803
3735.44	0.499147
3745.08	0.498618
3754.72	0.496253
3764.37	0.498436
3774.01	0.497522
3783.65	0.499066
3793.29	0.497469
3802.94	0.499215
3812.58	0.499061
3822.22	0.499808
3831.86	0.499318
3841.51	0.500782
3851.15	0.500655
3860.79	0.500042
3870.43	0.501261
3880.07	0.500477
3889.72	0.500302
3899.36	0.501471
3909	0.501112
3918.64	0.499332
3928.29	0.50023
3937.93	0.50011
3947.57	0.500463
3957.21	0.501645
3966.86	0.501361
3976.5	0.500989
3986.14	0.499731
3995.78	0.501288
