Measurement: Infrared, Infrared Data Processed
Mineral: Magnesio-fluoro-arfvedsonite
Rruff sample: R050515
Ideal chemistry: NaNa_2_(Mg_4_Fe^3+^)Si_8_O_22_F_2_
Locality: unknown
Source: Frank Hawthorne
Description: Numerous small dark green fragments
Measured chemistry: (Na_0.48_K_0.20_[box]_0.32_)(Na_1.50_Ca_0.50_)_Σ=2_(Mg_2.05_Fe^2+^_1.45_Mn_0.50_)_Σ=4_(Fe^3+^_0.80_Mn_0.05_Al_0.10_Ti_0.05_)(Si_0.97_Al_0.03_)_8_O_22_(F_0.65_(OH)_0.35_)_2_
x	intensity
374.123	0.219523
383.765	0.218237
393.407	0.208329
403.05	0.209238
412.692	0.223849
422.334	0.23292
431.976	0.238409
441.619	0.244316
451.261	0.247545
460.904	0.231587
470.546	0.212526
480.188	0.201263
489.83	0.193059
499.473	0.178618
509.115	0.160548
518.758	0.140392
528.4	0.122957
538.042	0.110142
547.684	0.093936
557.327	0.0774001
566.969	0.0668947
576.611	0.0627904
586.254	0.0626881
595.896	0.0640049
605.538	0.0671064
615.181	0.0715949
624.823	0.0757717
634.466	0.0846456
644.108	0.0939812
653.75	0.0931187
663.393	0.0855997
673.035	0.0794811
682.677	0.0751865
692.319	0.0754549
701.962	0.0720312
711.604	0.0729643
721.246	0.075902
730.889	0.0759515
740.531	0.0800893
750.173	0.087174
759.816	0.0908946
769.458	0.0852809
779.101	0.0830954
788.743	0.0762787
798.385	0.0786357
808.028	0.0704595
817.67	0.0723904
827.312	0.0823339
836.955	0.0977966
846.597	0.119208
856.239	0.146814
865.881	0.18031
875.524	0.214519
885.166	0.241623
894.808	0.267988
904.451	0.290685
914.093	0.311718
923.736	0.332829
933.378	0.362038
943.02	0.393407
952.663	0.409339
962.305	0.403521
971.947	0.379233
981.59	0.344558
991.232	0.305836
1000.87	0.266721
1010.52	0.233683
1020.16	0.211563
1029.8	0.197876
1039.44	0.18564
1049.09	0.172489
1058.73	0.163104
1068.37	0.155388
1078.01	0.14368
1087.65	0.127576
1097.3	0.114658
1106.94	0.105428
1116.58	0.0977623
1126.22	0.0901953
1135.87	0.0745515
1145.51	0.0553673
1155.15	0.0415816
1164.79	0.0357128
1174.44	0.0295717
1184.08	0.0244794
1193.72	0.0198547
1203.36	0.0150725
1213.01	0.0109866
1222.65	0.00818165
1232.29	0.0066378
1241.93	0.00554982
1251.58	0.00485324
1261.22	0.00430587
1270.86	0.00421499
1280.5	0.00409436
1290.14	0.00357177
1299.79	0.00346057
1309.43	0.00343968
1319.07	0.00323779
1328.71	0.00328556
1338.36	0.00333507
1348	0.00353839
1357.64	0.00365625
1367.28	0.00411798
1376.92	0.00453998
1386.57	0.00470992
1396.21	0.00537991
1405.85	0.00568229
1415.49	0.005803
1425.14	0.00590443
1434.78	0.00579675
1444.42	0.00533897
1454.06	0.00543234
1463.71	0.00502509
1473.35	0.00481079
1482.99	0.00439603
1492.63	0.00468934
1502.28	0.00488678
1511.92	0.00492821
1521.56	0.00528599
1531.2	0.00535712
1540.85	0.00625732
1550.49	0.00653918
1560.13	0.0075147
1569.77	0.00749599
1579.41	0.00768538
1589.06	0.00792326
1598.7	0.00839532
1608.34	0.00830811
1617.98	0.00853134
1627.63	0.00832678
1637.27	0.00832333
1646.91	0.00779306
1656.55	0.00699245
1666.19	0.00615137
1675.84	0.00574138
1685.48	0.00522933
1695.12	0.00471072
1704.77	0.00433844
1714.41	0.00403255
1724.05	0.00374228
1733.69	0.00380183
1743.33	0.00216017
1752.98	0.00215908
1762.62	0.00234329
1772.26	0.00261186
1781.9	0.0023076
1791.55	0.00253304
1801.19	0.00210566
1810.83	0.00212057
1820.47	0.00211949
1830.12	0.00199675
1839.76	0.00145871
1849.4	0.00138978
1859.04	0.00155059
1868.68	0.00127001
1878.33	0.000985439
1887.97	0.000774063
1897.61	0.00142813
1907.25	0.00068529
1916.9	0.000830862
1926.54	0.000495969
1936.18	-0.000593529
1945.82	-0.000492702
1955.46	-0.00155621
1965.11	-0.000127211
1974.75	-0.00115766
1984.39	2.27226e-05
1994.04	0.000896204
2003.68	-0.00136558
2013.32	8.20123e-05
2022.96	0.000494962
2032.6	0.00107709
2042.25	0.00142356
2051.89	0.00150878
2061.53	0.00148539
2071.17	0.00110804
2080.82	0.00182789
2090.46	0.00198322
2100.1	0.00194563
2109.74	0.00223249
2119.39	0.00213393
2129.03	0.00136687
2138.67	0.000933649
2148.31	0.00158706
2157.95	0.00273501
2167.6	0.00256714
2177.24	0.00271626
2186.88	0.00305862
2196.52	0.00299052
2206.17	0.0026432
2215.81	0.00215299
2225.45	0.00298112
2235.09	0.00360292
2244.74	0.00276242
2254.38	0.0034552
2264.02	0.00340616
2273.66	0.00337243
2283.3	0.00434316
2292.95	0.00452492
2302.59	0.00458021
2312.23	0.00460061
2321.87	0.00530089
2331.52	0.00472576
2341.16	0.00503987
2350.8	0.00450078
2360.44	0.00525725
2370.09	0.00511036
2379.73	0.00473397
2389.37	0.00458204
2399.01	0.00480023
2408.66	0.00535967
2418.3	0.00495726
2427.94	0.00481798
2437.58	0.00507644
2447.22	0.00515673
2456.87	0.00454148
2466.51	0.00547316
2476.15	0.00526994
2485.79	0.00462488
2495.44	0.00478018
2505.08	0.0051712
2514.72	0.00500469
2524.36	0.00554891
2534.01	0.00589234
2543.65	0.0058125
2553.29	0.00549178
2562.93	0.00607301
2572.57	0.00667315
2582.22	0.00621474
2591.86	0.00674679
2601.5	0.00643012
2611.14	0.00639046
2620.79	0.00679767
2630.43	0.00682156
2640.07	0.00716712
2649.71	0.00734687
2659.36	0.00721703
2669	0.00749677
2678.64	0.0074902
2688.28	0.00777066
2697.93	0.00815505
2707.57	0.00789979
2717.21	0.00823208
2726.85	0.00856478
2736.49	0.00856806
2746.14	0.00897117
2755.78	0.00905247
2765.42	0.00900498
2775.06	0.00923727
2784.71	0.00946439
2794.35	0.00952818
2803.99	0.00977489
2813.63	0.0103256
2823.28	0.0104935
2832.92	0.0111982
2842.56	0.0113874
2852.2	0.012182
2861.84	0.0125884
2871.49	0.0126357
2881.13	0.0131884
2890.77	0.0132093
2900.41	0.01397
2910.06	0.0145168
2919.7	0.0155814
2929.34	0.0158068
2938.98	0.0149688
2948.62	0.0150011
2958.27	0.0160447
2967.91	0.0151167
2977.55	0.0142028
2987.2	0.0142505
2996.84	0.0146187
3006.48	0.0147491
3016.12	0.0151284
3025.76	0.0155188
3035.41	0.0153955
3045.05	0.0155862
3054.69	0.0166254
3064.33	0.0170468
3073.98	0.0170663
3083.62	0.0178341
3093.26	0.0175491
3102.9	0.0177204
3112.55	0.0186713
3122.19	0.0187227
3131.83	0.0192896
3141.47	0.0195025
3151.11	0.0197444
3160.76	0.0200423
3170.4	0.0209591
3180.04	0.0206852
3189.68	0.0210595
3199.33	0.021671
3208.97	0.0223119
3218.61	0.021668
3228.25	0.0224811
3237.9	0.0228612
3247.54	0.0226968
3257.18	0.023663
3266.82	0.0227908
3276.47	0.023969
3286.11	0.0234416
3295.75	0.0245333
3305.39	0.0245928
3315.03	0.0243021
3324.68	0.0238997
3334.32	0.0249855
3343.96	0.024636
3353.6	0.0252565
3363.25	0.0249129
3372.89	0.0251864
3382.53	0.0267913
3392.17	0.0250409
3401.82	0.0255785
3411.46	0.0256691
3421.1	0.0258846
3430.74	0.0252748
3440.39	0.0258496
3450.03	0.0253199
3459.67	0.0248438
3469.31	0.0249888
3478.95	0.0252313
3488.6	0.0248577
3498.24	0.0239647
3507.88	0.0235307
3517.52	0.0237877
3527.17	0.022838
3536.81	0.0233401
3546.45	0.0222414
3556.09	0.02251
3565.74	0.0219631
3575.38	0.0210832
3585.02	0.0203409
3594.66	0.0196135
3604.3	0.0188913
3613.95	0.0191639
3623.59	0.0190638
3633.23	0.0168493
3642.87	0.0154173
3652.52	0.015775
3662.16	0.0136182
3671.8	0.0136647
3681.44	0.0121599
3691.09	0.0127605
3700.73	0.0127557
3710.37	0.0125615
3720.01	0.0119671
3729.66	0.0118656
3739.3	0.0122729
3748.94	0.0127093
3758.58	0.012091
3768.22	0.0121575
3777.87	0.012498
3787.51	0.0123609
3797.15	0.013186
3806.79	0.0130107
3816.44	0.0131565
3826.08	0.013534
3835.72	0.0129087
3845.36	0.0136249
3855.01	0.0145089
3864.65	0.0141255
3874.29	0.0133087
3883.93	0.0132949
3893.57	0.0140788
3903.22	0.0128549
3912.86	0.0135172
3922.5	0.0133383
3932.14	0.0144995
3941.79	0.0129349
3951.43	0.0137014
3961.07	0.0137273
3970.71	0.0140891
3980.36	0.0140081
3990	0.0146295
3999.64	0.0134846
