Measurement: Infrared, Infrared Data Processed
Mineral: Magnesiochromite
Rruff sample: R050399
Ideal chemistry: MgCr^3+^_2_O_4_
Locality: Troodos Mountains, Cyprus
Source: Andy McCarthy
Description: Black grains
Measured chemistry: (Mg_0.68_Fe^2+^_0.32_)_Σ=1_(Cr_1.29_Al_0.64_Fe^3+^_0.07_)_Σ=2_O__4
x	intensity
399.193	0.287423
408.835	0.297836
418.477	0.3113
428.12	0.308082
437.762	0.29754
447.404	0.297172
457.047	0.289385
466.689	0.28678
476.331	0.275014
485.974	0.271623
495.616	0.263163
505.258	0.245548
514.901	0.224723
524.543	0.199176
534.185	0.174403
543.828	0.151404
553.47	0.128772
563.112	0.109276
572.755	0.103417
582.397	0.122116
592.039	0.162757
601.682	0.212376
611.324	0.249101
620.966	0.271718
630.609	0.275345
640.251	0.243403
649.893	0.203674
659.536	0.175343
669.178	0.151338
678.82	0.13173
688.463	0.114115
698.105	0.10037
707.747	0.0875629
717.39	0.0760501
727.032	0.064786
736.674	0.0531984
746.317	0.0429904
755.959	0.0333301
765.601	0.0268541
775.244	0.0230647
784.886	0.0216251
794.528	0.0209087
804.171	0.0208115
813.813	0.0207606
823.455	0.0214181
833.098	0.0213892
842.74	0.0207912
852.382	0.0207331
862.025	0.0208099
871.667	0.020591
881.309	0.0205943
890.952	0.0215382
900.594	0.0230831
910.236	0.0254119
919.879	0.0298254
929.521	0.0400546
939.163	0.0569424
948.806	0.0716982
958.448	0.0796224
968.09	0.0777909
977.733	0.0733192
987.375	0.0715205
997.017	0.0721254
1006.66	0.0697945
1016.3	0.0623298
1025.94	0.0544521
1035.59	0.0494689
1045.23	0.0488776
1054.87	0.0489538
1064.51	0.0478509
1074.16	0.0469068
1083.8	0.0456017
1093.44	0.0394733
1103.08	0.0292532
1112.72	0.0220121
1122.37	0.020172
1132.01	0.019499
1141.65	0.0181852
1151.3	0.0180934
1160.94	0.017517
1170.58	0.0178474
1180.22	0.0178859
1189.86	0.0179319
1199.51	0.0176548
1209.15	0.0181087
1218.79	0.0181179
1228.43	0.0184997
1238.08	0.0188707
1247.72	0.0191047
1257.36	0.0197472
1267	0.0204458
1276.64	0.0213618
1286.29	0.0219913
1295.93	0.0222479
1305.57	0.0223862
1315.21	0.0226941
1324.86	0.0229837
1334.5	0.0239468
1344.14	0.0244963
1353.78	0.0249555
1363.43	0.0260508
1373.07	0.0264976
1382.71	0.0270531
1392.35	0.0280309
1401.99	0.0288097
1411.64	0.0289975
1421.28	0.0295491
1430.92	0.029911
1440.57	0.0304418
1450.21	0.0308539
1459.85	0.0315089
1469.49	0.0311964
1479.13	0.0315126
1488.78	0.0322044
1498.42	0.0328014
1508.06	0.0329941
1517.7	0.0338149
1527.35	0.0343372
1536.99	0.0352834
1546.63	0.0357443
1556.27	0.0370331
1565.91	0.0374303
1575.56	0.037879
1585.2	0.0377754
1594.84	0.0385875
1604.48	0.0389419
1614.13	0.0403549
1623.77	0.0407203
1633.41	0.0411547
1643.05	0.0414338
1652.7	0.0413228
1662.34	0.0417987
1671.98	0.041565
1681.62	0.0413269
1691.27	0.0416057
1700.91	0.0421281
1710.55	0.0425704
1720.19	0.0429387
1729.84	0.0430585
1739.48	0.0425981
1749.12	0.0420767
1758.76	0.0426958
1768.4	0.0430877
1778.05	0.0437025
1787.69	0.0443804
1797.33	0.0444368
1806.97	0.0449134
1816.62	0.0450617
1826.26	0.0455208
1835.9	0.0464622
1845.54	0.0468237
1855.18	0.046736
1864.83	0.0471615
1874.47	0.047054
1884.11	0.0485332
1893.75	0.0479075
1903.4	0.0484571
1913.04	0.0484213
1922.68	0.0504177
1932.32	0.0500174
1941.97	0.0479088
1951.61	0.0483776
1961.25	0.049332
1970.89	0.0496391
1980.54	0.0538083
1990.18	0.0531907
1999.82	0.0530583
2009.46	0.050486
2019.11	0.0504298
2028.75	0.0495977
2038.39	0.0530326
2048.03	0.05499
2057.67	0.0572813
2067.32	0.0544809
2076.96	0.0574652
2086.6	0.0572201
2096.24	0.0560457
2105.89	0.058154
2115.53	0.0588467
2125.17	0.0589194
2134.81	0.0579745
2144.45	0.0565287
2154.1	0.0555243
2163.74	0.0612945
2173.38	0.0596884
2183.02	0.060049
2192.67	0.0623402
2202.31	0.0627651
2211.95	0.0632709
2221.59	0.0634593
2231.24	0.0645219
2240.88	0.0652467
2250.52	0.0643242
2260.16	0.0655394
2269.8	0.0671347
2279.45	0.0679846
2289.09	0.0675239
2298.73	0.0677918
2308.38	0.068544
2318.02	0.069193
2327.66	0.0702338
2337.3	0.0699672
2346.94	0.0694706
2356.59	0.071283
2366.23	0.0709043
2375.87	0.0699891
2385.51	0.0688927
2395.16	0.0706999
2404.8	0.0718759
2414.44	0.0719888
2424.08	0.0728062
2433.72	0.0728693
2443.37	0.0736986
2453.01	0.0739514
2462.65	0.0731241
2472.29	0.0737725
2481.94	0.0737643
2491.58	0.0746133
2501.22	0.0757157
2510.86	0.0755258
2520.51	0.0751166
2530.15	0.0760686
2539.79	0.0758612
2549.43	0.0761898
2559.07	0.0783723
2568.72	0.0767114
2578.36	0.0779401
2588	0.0787813
2597.64	0.0781285
2607.29	0.0793486
2616.93	0.0816036
2626.57	0.0819684
2636.21	0.0811655
2645.86	0.0816569
2655.5	0.0810591
2665.14	0.0819517
2674.78	0.0818662
2684.43	0.0830996
2694.07	0.0822749
2703.71	0.0841042
2713.35	0.0834359
2722.99	0.0853162
2732.64	0.0849282
2742.28	0.0857505
2751.92	0.0857162
2761.56	0.0856805
2771.21	0.0883163
2780.85	0.0888288
2790.49	0.0880909
2800.13	0.089067
2809.78	0.0891206
2819.42	0.0885547
2829.06	0.090894
2838.7	0.0919067
2848.34	0.0905323
2857.99	0.0891029
2867.63	0.0903335
2877.27	0.0929111
2886.91	0.0932288
2896.56	0.0936297
2906.2	0.0945367
2915.84	0.0917801
2925.48	0.0937916
2935.13	0.0924234
2944.77	0.0943269
2954.41	0.0943752
2964.05	0.0960566
2973.7	0.096158
2983.34	0.0980057
2992.98	0.0979492
3002.62	0.0973676
3012.26	0.0982056
3021.91	0.0964017
3031.55	0.098979
3041.19	0.0986018
3050.83	0.099016
3060.48	0.100218
3070.12	0.101195
3079.76	0.10167
3089.4	0.101422
3099.05	0.100999
3108.69	0.102506
3118.33	0.103662
3127.97	0.104887
3137.61	0.105255
3147.26	0.103669
3156.9	0.106662
3166.54	0.10662
3176.18	0.104834
3185.83	0.108612
3195.47	0.104949
3205.11	0.107149
3214.75	0.10832
3224.4	0.107566
3234.04	0.106586
3243.68	0.107993
3253.32	0.108606
3262.97	0.111325
3272.61	0.108672
3282.25	0.111238
3291.89	0.112492
3301.53	0.110781
3311.18	0.114544
3320.82	0.111535
3330.46	0.110734
3340.1	0.112198
3349.75	0.111807
3359.39	0.111384
3369.03	0.112909
3378.67	0.113519
3388.32	0.114999
3397.96	0.110291
3407.6	0.113873
3417.24	0.113222
3426.89	0.117791
3436.53	0.115525
3446.17	0.113936
3455.81	0.113994
3465.45	0.115807
3475.1	0.12023
3484.74	0.114358
3494.38	0.117758
3504.02	0.111001
3513.67	0.11674
3523.31	0.114786
3532.95	0.116987
3542.59	0.117671
3552.24	0.120352
3561.88	0.117564
3571.52	0.12034
3581.16	0.118745
3590.8	0.1186
3600.45	0.121615
3610.09	0.122215
3619.73	0.121228
3629.37	0.120352
3639.02	0.119044
3648.66	0.117191
3658.3	0.123082
3667.94	0.121651
3677.59	0.130001
3687.23	0.136313
3696.87	0.120481
3706.51	0.110662
3716.16	0.10503
3725.8	0.104371
3735.44	0.108007
3745.08	0.105136
3754.72	0.113258
3764.37	0.108688
3774.01	0.108091
3783.65	0.108234
3793.29	0.106401
3802.94	0.106799
3812.58	0.107795
3822.22	0.10965
3831.86	0.107529
3841.51	0.114145
3851.15	0.115429
3860.79	0.11113
3870.43	0.112078
3880.07	0.11135
3889.72	0.113825
3899.36	0.111901
3909	0.111434
3918.64	0.110848
3928.29	0.111544
3937.93	0.111737
3947.57	0.106806
3957.21	0.113244
3966.86	0.111655
3976.5	0.112399
3986.14	0.115034
3995.78	0.11107
