Measurement: Infrared, Infrared Data Processed
Mineral: Magnesio-hastingsite
Rruff sample: R040010
Ideal chemistry: NaCa_2_(Mg_4_Fe^3+^)Si_6_Al_2_O_22_(OH)_2_
Locality: Amity, New York, USA
Source: University of Arizona Mineral Museum
Description: Group of black prismatic crystals
Measured chemistry: (Na_0.50_K_0.43_[box]_0.07_)_Σ=1_(Ca_1.77_Na_0.23_)_Σ=2_(Mg_1.74_Fe_1.22_Fe^3+^_0.79_Mn_0.57_Al_0.30_Zn_0.25_Ti_0.13_)_Σ=5_(Si_5.95_Al_2.05_)_Σ=8_O_22_((OH)_1.75_F_0.22_Cl_0.03_)_Σ=2_; OH estimated by charge balance
x	intensity
399.193	0
408.835	0.277928
418.477	0.288033
428.12	0.290758
437.762	0.30063
447.404	0.306432
457.047	0.289442
466.689	0.251742
476.331	0.212554
485.974	0.193535
495.616	0.194288
505.258	0.192784
514.901	0.180346
524.543	0.164812
534.185	0.142321
543.828	0.111792
553.47	0.0859844
563.112	0.0680896
572.755	0.0562632
582.397	0.053515
592.039	0.0585316
601.682	0.0677327
611.324	0.0734996
620.966	0.0732382
630.609	0.0719984
640.251	0.0704852
649.893	0.0748839
659.536	0.0828524
669.178	0.090074
678.82	0.0827076
688.463	0.0756424
698.105	0.0702048
707.747	0.0652848
717.39	0.0715406
727.032	0.0801911
736.674	0.0763214
746.317	0.0754111
755.959	0.0818135
765.601	0.0938638
775.244	0.107752
784.886	0.117375
794.528	0.116792
804.171	0.109019
813.813	0.112312
823.455	0.133632
833.098	0.170841
842.74	0.218468
852.382	0.260986
862.025	0.284154
871.667	0.292487
881.309	0.304879
890.952	0.329543
900.594	0.362569
910.236	0.385512
919.879	0.390967
929.521	0.385042
939.163	0.366622
948.806	0.343012
958.448	0.321287
968.09	0.298064
977.733	0.265697
987.375	0.226732
997.017	0.191436
1006.66	0.169698
1016.3	0.161931
1025.94	0.158014
1035.59	0.152933
1045.23	0.145838
1054.87	0.131245
1064.51	0.115125
1074.16	0.101542
1083.8	0.087091
1093.44	0.0706784
1103.08	0.0551529
1112.72	0.0412058
1122.37	0.026932
1132.01	0.0176369
1141.65	0.0131875
1151.3	0.0106757
1160.94	0.00925692
1170.58	0.00788472
1180.22	0.00710832
1189.86	0.0060763
1199.51	0.00571323
1209.15	0.00532994
1218.79	0.00492627
1228.43	0.00479235
1238.08	0.0047213
1247.72	0.00453427
1257.36	0.00464783
1267	0.0047341
1276.64	0.0047113
1286.29	0.00465184
1295.93	0.00473972
1305.57	0.00474641
1315.21	0.00483736
1324.86	0.00503689
1334.5	0.00520319
1344.14	0.00551544
1353.78	0.00608724
1363.43	0.0062007
1373.07	0.00646121
1382.71	0.00691191
1392.35	0.00758053
1401.99	0.00828052
1411.64	0.00848485
1421.28	0.00860099
1430.92	0.00875004
1440.57	0.00833005
1450.21	0.00809088
1459.85	0.00784525
1469.49	0.00774826
1479.13	0.00796147
1488.78	0.00826579
1498.42	0.00844239
1508.06	0.00884583
1517.7	0.00899468
1527.35	0.00915523
1536.99	0.00955805
1546.63	0.00958628
1556.27	0.010056
1565.91	0.0102515
1575.56	0.0105019
1585.2	0.0105624
1594.84	0.010463
1604.48	0.0105659
1614.13	0.01048
1623.77	0.0101967
1633.41	0.0100308
1643.05	0.0100272
1652.7	0.00965997
1662.34	0.00922857
1671.98	0.00865909
1681.62	0.00818201
1691.27	0.00754635
1700.91	0.00703402
1710.55	0.00647727
1720.19	0.00635554
1729.84	0.00666125
1739.48	0.00552743
1749.12	0.00550696
1758.76	0.00610038
1768.4	0.00644109
1778.05	0.00648109
1787.69	0.00661371
1797.33	0.0064541
1806.97	0.00566163
1816.62	0.00567922
1826.26	0.00586353
1835.9	0.00551144
1845.54	0.00566916
1855.18	0.00515893
1864.83	0.00511841
1874.47	0.00442768
1884.11	0.00456527
1893.75	0.00440863
1903.4	0.00523419
1913.04	0.00387947
1922.68	0.00359798
1932.32	0.0038874
1941.97	0.00324709
1951.61	0.00266876
1961.25	-4.93379e-05
1970.89	0.00299687
1980.54	0.00419289
1990.18	0.00414495
1999.82	0.0020432
2009.46	0.00243263
2019.11	0.00334145
2028.75	0.00234242
2038.39	0.00343518
2048.03	0.00439831
2057.67	0.00418502
2067.32	0.00610393
2076.96	0.00567778
2086.6	0.00624619
2096.24	0.00585796
2105.89	0.00559891
2115.53	0.00777808
2125.17	0.00524743
2134.81	0.00451516
2144.45	0.00375925
2154.1	-0.000626519
2163.74	0.00682111
2173.38	0.00598937
2183.02	0.0083441
2192.67	0.00837786
2202.31	0.0109243
2211.95	0.00987727
2221.59	0.0093122
2231.24	0.00945672
2240.88	0.00991901
2250.52	0.0115582
2260.16	0.0103527
2269.8	0.0110583
2279.45	0.0115199
2289.09	0.0130532
2298.73	0.0129965
2308.38	0.0119025
2318.02	0.012781
2327.66	0.012299
2337.3	0.0130123
2346.94	0.0115467
2356.59	0.0131512
2366.23	0.0129151
2375.87	0.0118874
2385.51	0.0110408
2395.16	0.012387
2404.8	0.0116816
2414.44	0.0132019
2424.08	0.0123885
2433.72	0.0119245
2443.37	0.0134041
2453.01	0.0126453
2462.65	0.0129959
2472.29	0.0136709
2481.94	0.0126548
2491.58	0.0132155
2501.22	0.0125678
2510.86	0.0137745
2520.51	0.0138094
2530.15	0.0137763
2539.79	0.0133869
2549.43	0.0135874
2559.07	0.0141209
2568.72	0.0140436
2578.36	0.0143109
2588	0.0143119
2597.64	0.0149926
2607.29	0.0144854
2616.93	0.0149306
2626.57	0.014768
2636.21	0.0153755
2645.86	0.0150767
2655.5	0.0147747
2665.14	0.0152
2674.78	0.0151844
2684.43	0.0149411
2694.07	0.0146885
2703.71	0.0151412
2713.35	0.0149392
2722.99	0.0154636
2732.64	0.0169106
2742.28	0.0153117
2751.92	0.0151805
2761.56	0.0163794
2771.21	0.0158999
2780.85	0.0160214
2790.49	0.016733
2800.13	0.0169181
2809.78	0.0168864
2819.42	0.0163901
2829.06	0.016596
2838.7	0.0163227
2848.34	0.0163195
2857.99	0.0166832
2867.63	0.0169006
2877.27	0.018695
2886.91	0.0180368
2896.56	0.017052
2906.2	0.0171913
2915.84	0.0175165
2925.48	0.0174011
2935.13	0.017517
2944.77	0.0177918
2954.41	0.0193652
2964.05	0.0191129
2973.7	0.0204289
2983.34	0.0203051
2992.98	0.0202823
3002.62	0.0200466
3012.26	0.0207331
3021.91	0.0214991
3031.55	0.0218609
3041.19	0.0220465
3050.83	0.0230773
3060.48	0.0221964
3070.12	0.0228996
3079.76	0.0236665
3089.4	0.0248946
3099.05	0.0241168
3108.69	0.0242568
3118.33	0.0247622
3127.97	0.0261662
3137.61	0.0251508
3147.26	0.0251222
3156.9	0.0254122
3166.54	0.0272816
3176.18	0.0279803
3185.83	0.0276067
3195.47	0.0273464
3205.11	0.0276453
3214.75	0.0281419
3224.4	0.0266542
3234.04	0.0286558
3243.68	0.0297362
3253.32	0.0285601
3262.97	0.0280876
3272.61	0.0284375
3282.25	0.0283619
3291.89	0.0305405
3301.53	0.0289558
3311.18	0.0303291
3320.82	0.0325337
3330.46	0.0313474
3340.1	0.0305997
3349.75	0.0281465
3359.39	0.0290458
3369.03	0.0308458
3378.67	0.0303383
3388.32	0.0317927
3397.96	0.0308065
3407.6	0.0307932
3417.24	0.0314078
3426.89	0.0314785
3436.53	0.0305969
3446.17	0.0307267
3455.81	0.0298199
3465.45	0.0274986
3475.1	0.0292647
3484.74	0.0284602
3494.38	0.0280561
3504.02	0.0295491
3513.67	0.030482
3523.31	0.0286948
3532.95	0.0297952
3542.59	0.0290265
3552.24	0.0288649
3561.88	0.0278675
3571.52	0.0271143
3581.16	0.0275548
3590.8	0.0283048
3600.45	0.0258574
3610.09	0.0228587
3619.73	0.02518
3629.37	0.0236258
3639.02	0.0259429
3648.66	0.0237667
3658.3	0.0275006
3667.94	0.0247704
3677.59	0.0253522
3687.23	0.0246211
3696.87	0.0229758
3706.51	0.0231094
3716.16	0.0210044
3725.8	0.0220284
3735.44	0.0218849
3745.08	0.0190349
3754.72	0.022474
3764.37	0.0262891
3774.01	0.0245874
3783.65	0.0227869
3793.29	0.0221074
3802.94	0.0228742
3812.58	0.0207201
3822.22	0.0220895
3831.86	0.0226277
3841.51	0.0225359
3851.15	0.0234637
3860.79	0.0261218
3870.43	0.0222631
3880.07	0.0218035
3889.72	0.0244755
3899.36	0.0242989
3909	0.0233845
3918.64	0.0246278
3928.29	0.0237035
3937.93	0.0247998
3947.57	0.0265095
3957.21	0.0236817
3966.86	0.0245676
3976.5	0.0256104
3986.14	0.0253431
3995.78	0.0231049
