Measurement: Infrared, Infrared Data Processed
Mineral: Malachite
Rruff sample: R050508
Ideal chemistry: Cu^2+^_2_CO_3_(OH)_2_
Locality: Kambova, Kantanga, Zaire
Source: University of Arizona Mineral Museum
Description: Green short bladed crystals
Measured chemistry: Cu_2.00_(CO_3_)(OH)_2_
x	intensity
399.193	0.131892
408.835	0.14548
418.477	0.199228
428.12	0.258585
437.762	0.162575
447.404	0.140789
457.047	0.141969
466.689	0.156819
476.331	0.183698
485.974	0.193647
495.616	0.219713
505.258	0.258587
514.901	0.214055
524.543	0.259923
534.185	0.149488
543.828	0.109969
553.47	0.113667
563.112	0.153398
572.755	0.203185
582.397	0.182439
592.039	0.114636
601.682	0.0767553
611.324	0.0678464
620.966	0.0659319
630.609	0.0660717
640.251	0.0680052
649.893	0.0717073
659.536	0.0770148
669.178	0.0845416
678.82	0.0921522
688.463	0.104532
698.105	0.124677
707.747	0.161756
717.39	0.143476
727.032	0.156909
736.674	0.18044
746.317	0.238245
755.959	0.171747
765.601	0.143465
775.244	0.154301
784.886	0.136726
794.528	0.114462
804.171	0.127893
813.813	0.254585
823.455	0.271288
833.098	0.149607
842.74	0.129332
852.382	0.156723
862.025	0.205159
871.667	0.231266
881.309	0.214809
890.952	0.16547
900.594	0.11614
910.236	0.0873642
919.879	0.073592
929.521	0.0660601
939.163	0.0612725
948.806	0.0571211
958.448	0.0551532
968.09	0.0548599
977.733	0.0574952
987.375	0.0613082
997.017	0.0658774
1006.66	0.0751706
1016.3	0.0953522
1025.94	0.132393
1035.59	0.204295
1045.23	0.261339
1054.87	0.18423
1064.51	0.0897665
1074.16	0.047441
1083.8	0.0379579
1093.44	0.0743579
1103.08	0.0635774
1112.72	0.0406183
1122.37	0.0320949
1132.01	0.0276028
1141.65	0.0246123
1151.3	0.0221977
1160.94	0.0208159
1170.58	0.0205842
1180.22	0.0218343
1189.86	0.0239896
1199.51	0.0245789
1209.15	0.0243676
1218.79	0.0249355
1228.43	0.0250421
1238.08	0.0256829
1247.72	0.0285121
1257.36	0.0315841
1267	0.0349759
1276.64	0.0419516
1286.29	0.0471788
1295.93	0.0546134
1305.57	0.0671515
1315.21	0.0841379
1324.86	0.103984
1334.5	0.129404
1344.14	0.163378
1353.78	0.208037
1363.43	0.267765
1373.07	0.340241
1382.71	0.382154
1392.35	0.342368
1401.99	0.267571
1411.64	0.226772
1421.28	0.21186
1430.92	0.16185
1440.57	0.110512
1450.21	0.0998099
1459.85	0.110596
1469.49	0.137598
1479.13	0.193128
1488.78	0.228522
1498.42	0.207887
1508.06	0.177505
1517.7	0.157515
1527.35	0.135523
1536.99	0.102088
1546.63	0.070841
1556.27	0.0494617
1565.91	0.0350291
1575.56	0.0264819
1585.2	0.0212939
1594.84	0.0182745
1604.48	0.0155482
1614.13	0.0134685
1623.77	0.0120256
1633.41	0.0103949
1643.05	0.00949935
1652.7	0.00894091
1662.34	0.007985
1671.98	0.00720647
1681.62	0.0066935
1691.27	0.0062935
1700.91	0.00566631
1710.55	0.00500098
1720.19	0.00506758
1729.84	0.0046817
1739.48	0.00262378
1749.12	0.00248926
1758.76	0.00421051
1768.4	0.00492128
1778.05	0.00522332
1787.69	0.00565225
1797.33	0.00627336
1806.97	0.00649687
1816.62	0.00508511
1826.26	0.00481188
1835.9	0.00429827
1845.54	0.00499927
1855.18	0.00439734
1864.83	0.00445039
1874.47	0.00468227
1884.11	0.00395611
1893.75	0.00390479
1903.4	0.00353908
1913.04	0.00361378
1922.68	0.00343407
1932.32	0.00267728
1941.97	0.00319608
1951.61	0.00243814
1961.25	0.00215541
1970.89	0.00139247
1980.54	0.00254255
1990.18	0.00215934
1999.82	0.000581892
2009.46	0.00141913
2019.11	9.25201e-05
2028.75	0.00199327
2038.39	0.00194714
2048.03	0.00320893
2057.67	0.00202649
2067.32	0.00262424
2076.96	0.00285772
2086.6	0.00226727
2096.24	0.00198545
2105.89	0.00337309
2115.53	0.0033419
2125.17	0.00257408
2134.81	0.00133982
2144.45	0.00236617
2154.1	0.00157593
2163.74	0.00454916
2173.38	0.0015597
2183.02	0.0039948
2192.67	0.00160882
2202.31	0.00307319
2211.95	0.0041532
2221.59	0.00488998
2231.24	0.00501257
2240.88	0.0047084
2250.52	0.00454457
2260.16	0.00561552
2269.8	0.00566285
2279.45	0.00555541
2289.09	0.0058977
2298.73	0.00564469
2308.38	0.00625282
2318.02	0.00664111
2327.66	0.00615283
2337.3	0.0072749
2346.94	0.00632359
2356.59	0.00720085
2366.23	0.00663842
2375.87	0.00661558
2385.51	0.00639312
2395.16	0.00657992
2404.8	0.00743592
2414.44	0.0068473
2424.08	0.00736669
2433.72	0.00630275
2443.37	0.00717346
2453.01	0.00709154
2462.65	0.00648476
2472.29	0.00679718
2481.94	0.00699978
2491.58	0.00664862
2501.22	0.00689009
2510.86	0.00738344
2520.51	0.00676844
2530.15	0.00739453
2539.79	0.00780684
2549.43	0.00709424
2559.07	0.00751173
2568.72	0.00679836
2578.36	0.00655876
2588	0.00632732
2597.64	0.00682734
2607.29	0.00658352
2616.93	0.00700661
2626.57	0.0063365
2636.21	0.00645802
2645.86	0.00670642
2655.5	0.00661282
2665.14	0.00623575
2674.78	0.00657911
2684.43	0.00618069
2694.07	0.00652542
2703.71	0.00627346
2713.35	0.00636326
2722.99	0.00661635
2732.64	0.00608714
2742.28	0.00636309
2751.92	0.00652687
2761.56	0.00640217
2771.21	0.00631724
2780.85	0.00676097
2790.49	0.00752012
2800.13	0.0074188
2809.78	0.00765726
2819.42	0.00766963
2829.06	0.0079926
2838.7	0.00842602
2848.34	0.00678029
2857.99	0.00717309
2867.63	0.00888139
2877.27	0.00885004
2886.91	0.00953021
2896.56	0.00932995
2906.2	0.0090902
2915.84	0.00775925
2925.48	0.00754228
2935.13	0.00858835
2944.77	0.00914403
2954.41	0.00885345
2964.05	0.00979633
2973.7	0.00910543
2983.34	0.0102072
2992.98	0.010173
3002.62	0.0103444
3012.26	0.0116868
3021.91	0.0116533
3031.55	0.0125054
3041.19	0.0126311
3050.83	0.0134033
3060.48	0.014221
3070.12	0.0148355
3079.76	0.0147871
3089.4	0.0160302
3099.05	0.0173609
3108.69	0.0181399
3118.33	0.0181166
3127.97	0.018876
3137.61	0.0193351
3147.26	0.0208653
3156.9	0.0217362
3166.54	0.022303
3176.18	0.0231624
3185.83	0.0243482
3195.47	0.0250263
3205.11	0.0272716
3214.75	0.0274542
3224.4	0.02904
3234.04	0.0306662
3243.68	0.0321098
3253.32	0.0343025
3262.97	0.037343
3272.61	0.0388608
3282.25	0.0438038
3291.89	0.047898
3301.53	0.0533618
3311.18	0.0571235
3320.82	0.0567048
3330.46	0.0543814
3340.1	0.0501691
3349.75	0.0463846
3359.39	0.0450801
3369.03	0.0450304
3378.67	0.0477071
3388.32	0.0554659
3397.96	0.0672165
3407.6	0.0684532
3417.24	0.0537922
3426.89	0.0411425
3436.53	0.0319755
3446.17	0.0259487
3455.81	0.0239902
3465.45	0.0216474
3475.1	0.0196627
3484.74	0.0198063
3494.38	0.0185699
3504.02	0.0165058
3513.67	0.0166562
3523.31	0.0144802
3532.95	0.0132472
3542.59	0.0116711
3552.24	0.00927765
3561.88	0.00868197
3571.52	0.00850268
3581.16	0.00680442
3590.8	0.00629996
3600.45	0.00488867
3610.09	0.00625437
3619.73	0.00489202
3629.37	0.00344245
3639.02	0.00423005
3648.66	0.00407055
3658.3	0.00393906
3667.94	0.0036067
3677.59	0.00377214
3687.23	0.00443453
3696.87	0.00383147
3706.51	0.00267018
3716.16	0.0037672
3725.8	0.00505605
3735.44	0.0028835
3745.08	0.00429028
3754.72	0.00457598
3764.37	0.00496015
3774.01	0.0038419
3783.65	0.00323734
3793.29	0.00265338
3802.94	0.00553635
3812.58	0.004037
3822.22	0.00411316
3831.86	0.00469433
3841.51	0.00506879
3851.15	0.00478394
3860.79	0.00397591
3870.43	0.00426602
3880.07	0.00507227
3889.72	0.00504492
3899.36	0.00356774
3909	0.00477281
3918.64	0.00375637
3928.29	0.00471975
3937.93	0.00654675
3947.57	0.0055586
3957.21	0.00473794
3966.86	0.00445254
3976.5	0.00495844
3986.14	0.00533246
3995.78	0.00492533
