Measurement: Infrared, Infrared Data Processed
Mineral: Mangano-mangani-ungarettiite
Rruff sample: R050244
Ideal chemistry: NaNa_2_(Mn^2+^_2_Mn^3+^_3_)Si_8_O_22_O_2_
Locality: Hoskins mine, near Grenfell, New South Wales, Australia
Source: Marcus Origlieri
Description: Dark red granular, associated with namansilite, R070006
Measured chemistry: Na_1.00_Na_2.00_(Mn^2+^_2.00_(Mn^3+^_2.35_Fe^3+^_0.63_Al_0.02_)_Î£=3_)Si_8.00_O_22_O_2_
x	intensity
374.123	0.201942
383.765	0.235271
393.407	0.257278
403.05	0.286297
412.692	0.251862
422.334	0.225595
431.976	0.204037
441.619	0.203277
451.261	0.216106
460.904	0.21255
470.546	0.192069
480.188	0.165054
489.83	0.128228
499.473	0.122634
509.115	0.118841
518.758	0.113713
528.4	0.149494
538.042	0.195576
547.684	0.205356
557.327	0.170755
566.969	0.140219
576.611	0.118552
586.254	0.0932556
595.896	0.0659163
605.538	0.0527929
615.181	0.0486445
624.823	0.0566784
634.466	0.0834024
644.108	0.0895091
653.75	0.0494397
663.393	0.0391569
673.035	0.0358668
682.677	0.0378937
692.319	0.0354514
701.962	0.0372777
711.604	0.0416632
721.246	0.0492034
730.889	0.0633142
740.531	0.0517099
750.173	0.0538385
759.816	0.0608246
769.458	0.0680756
779.101	0.0682521
788.743	0.0687338
798.385	0.0770906
808.028	0.0873157
817.67	0.101002
827.312	0.118792
836.955	0.140522
846.597	0.168039
856.239	0.191828
865.881	0.213538
875.524	0.244438
885.166	0.277331
894.808	0.30999
904.451	0.338641
914.093	0.359584
923.736	0.368675
933.378	0.357604
943.02	0.355628
952.663	0.381052
962.305	0.380945
971.947	0.373505
981.59	0.349401
991.232	0.316721
1000.87	0.283006
1010.52	0.246667
1020.16	0.209882
1029.8	0.205743
1039.44	0.185123
1049.09	0.16519
1058.73	0.144661
1068.37	0.128585
1078.01	0.116111
1087.65	0.102416
1097.3	0.087203
1106.94	0.072654
1116.58	0.0591638
1126.22	0.0484156
1135.87	0.0456553
1145.51	0.0383645
1155.15	0.0263514
1164.79	0.0185551
1174.44	0.0130078
1184.08	0.00985501
1193.72	0.00776775
1203.36	0.00594558
1213.01	0.00445328
1222.65	0.00365627
1232.29	0.00269396
1241.93	0.0021447
1251.58	0.00176178
1261.22	0.00159114
1270.86	0.00161873
1280.5	0.00174155
1290.14	0.00170821
1299.79	0.00198172
1309.43	0.00208093
1319.07	0.00233629
1328.71	0.00249273
1338.36	0.00270512
1348	0.00293112
1357.64	0.00312311
1367.28	0.0031997
1376.92	0.00335744
1386.57	0.00351918
1396.21	0.00381695
1405.85	0.00391283
1415.49	0.00410858
1425.14	0.00430012
1434.78	0.00426901
1444.42	0.00406698
1454.06	0.00415424
1463.71	0.00399331
1473.35	0.00395839
1482.99	0.00350799
1492.63	0.00351711
1502.28	0.00359042
1511.92	0.00384531
1521.56	0.00428625
1531.2	0.00424015
1540.85	0.00550683
1550.49	0.00523126
1560.13	0.00674609
1569.77	0.00632494
1579.41	0.00623944
1589.06	0.0059496
1598.7	0.00611056
1608.34	0.00588439
1617.98	0.00592473
1627.63	0.00559204
1637.27	0.00578282
1646.91	0.00589697
1656.55	0.0050464
1666.19	0.00490829
1675.84	0.00482964
1685.48	0.00489735
1695.12	0.00482061
1704.77	0.0039522
1714.41	0.00425331
1724.05	0.00400641
1733.69	0.00436463
1743.33	0.00366872
1752.98	0.00329547
1762.62	0.00375238
1772.26	0.0039405
1781.9	0.00320689
1791.55	0.00348815
1801.19	0.0030289
1810.83	0.00288123
1820.47	0.00269535
1830.12	0.00281854
1839.76	0.00269299
1849.4	0.00276779
1859.04	0.00236412
1868.68	0.00243625
1878.33	0.00240199
1887.97	0.00231574
1897.61	0.00223221
1907.25	0.00235451
1916.9	0.00254534
1926.54	0.00173514
1936.18	0.00202182
1945.82	0.00132888
1955.46	0.000497743
1965.11	0.00069989
1974.75	0.00132378
1984.39	0.00168876
1994.04	0.000880328
2003.68	0.0016274
2013.32	0.00207474
2022.96	0.000799184
2032.6	0.00293814
2042.25	0.00192367
2051.89	0.00226461
2061.53	0.00276315
2071.17	0.00197471
2080.82	0.0022021
2090.46	0.00202431
2100.1	0.00265694
2109.74	0.00219119
2119.39	0.00215212
2129.03	0.00158756
2138.67	0.00158022
2148.31	0.00163284
2157.95	0.00167442
2167.6	0.00259299
2177.24	0.00369916
2186.88	0.00488866
2196.52	0.0043853
2206.17	0.00462675
2215.81	0.00517895
2225.45	0.00553137
2235.09	0.00494134
2244.74	0.00556105
2254.38	0.00673617
2264.02	0.00575864
2273.66	0.00647436
2283.3	0.00601435
2292.95	0.00578762
2302.59	0.00644806
2312.23	0.00646419
2321.87	0.0073659
2331.52	0.00722867
2341.16	0.00706006
2350.8	0.00623822
2360.44	0.00806556
2370.09	0.00689355
2379.73	0.00613206
2389.37	0.00608844
2399.01	0.00627789
2408.66	0.00606988
2418.3	0.00646787
2427.94	0.00680651
2437.58	0.00708487
2447.22	0.00708099
2456.87	0.00676223
2466.51	0.00746207
2476.15	0.00740442
2485.79	0.00709694
2495.44	0.00717809
2505.08	0.00708636
2514.72	0.00744683
2524.36	0.00672035
2534.01	0.00711526
2543.65	0.007198
2553.29	0.00759468
2562.93	0.00738665
2572.57	0.0074245
2582.22	0.00775798
2591.86	0.00795968
2601.5	0.00793002
2611.14	0.00844214
2620.79	0.00833364
2630.43	0.00796572
2640.07	0.00836189
2649.71	0.00838052
2659.36	0.0086976
2669	0.00864791
2678.64	0.00856215
2688.28	0.00873417
2697.93	0.00851383
2707.57	0.00891232
2717.21	0.00890084
2726.85	0.00902577
2736.49	0.00929511
2746.14	0.00951271
2755.78	0.00971884
2765.42	0.00983437
2775.06	0.0101902
2784.71	0.0103135
2794.35	0.0100703
2803.99	0.0105772
2813.63	0.0107072
2823.28	0.0106735
2832.92	0.0113693
2842.56	0.0115795
2852.2	0.0121176
2861.84	0.0121087
2871.49	0.0119114
2881.13	0.0116625
2890.77	0.0126242
2900.41	0.0129612
2910.06	0.0135806
2919.7	0.0144917
2929.34	0.0149003
2938.98	0.0131129
2948.62	0.013318
2958.27	0.0134557
2967.91	0.013223
2977.55	0.0127487
2987.2	0.0124398
2996.84	0.0127733
3006.48	0.0127926
3016.12	0.0125757
3025.76	0.0129724
3035.41	0.012732
3045.05	0.0133399
3054.69	0.0135636
3064.33	0.0133862
3073.98	0.0136387
3083.62	0.0139924
3093.26	0.0133541
3102.9	0.0138422
3112.55	0.0149874
3122.19	0.015141
3131.83	0.0146689
3141.47	0.0150091
3151.11	0.0148901
3160.76	0.0151709
3170.4	0.0151382
3180.04	0.0157555
3189.68	0.0157932
3199.33	0.0160115
3208.97	0.0165392
3218.61	0.0160354
3228.25	0.0159915
3237.9	0.0158578
3247.54	0.0161252
3257.18	0.0159119
3266.82	0.016535
3276.47	0.0169721
3286.11	0.0160443
3295.75	0.0165286
3305.39	0.0157472
3315.03	0.0159345
3324.68	0.0166577
3334.32	0.016828
3343.96	0.016539
3353.6	0.016662
3363.25	0.017005
3372.89	0.0173433
3382.53	0.0169535
3392.17	0.0171909
3401.82	0.0163087
3411.46	0.0168833
3421.1	0.0166341
3430.74	0.0162701
3440.39	0.0163402
3450.03	0.01634
3459.67	0.0151194
3469.31	0.0160205
3478.95	0.0160186
3488.6	0.01622
3498.24	0.0154663
3507.88	0.0155494
3517.52	0.0160302
3527.17	0.0152503
3536.81	0.0151981
3546.45	0.014396
3556.09	0.0144718
3565.74	0.0140869
3575.38	0.0143988
3585.02	0.0137975
3594.66	0.0139024
3604.3	0.0122106
3613.95	0.0136254
3623.59	0.0118352
3633.23	0.0118968
3642.87	0.0114634
3652.52	0.0117376
3662.16	0.0117465
3671.8	0.0115133
3681.44	0.010226
3691.09	0.0111173
3700.73	0.0112993
3710.37	0.012005
3720.01	0.00989664
3729.66	0.0103232
3739.3	0.0108182
3748.94	0.0118223
3758.58	0.0106267
3768.22	0.0107316
3777.87	0.0101261
3787.51	0.00959872
3797.15	0.0112911
3806.79	0.010283
3816.44	0.0105338
3826.08	0.00969073
3835.72	0.0112645
3845.36	0.010692
3855.01	0.0119756
3864.65	0.0103719
3874.29	0.00998059
3883.93	0.0107136
3893.57	0.00964658
3903.22	0.0105407
3912.86	0.00991267
3922.5	0.0107987
3932.14	0.0102967
3941.79	0.00994985
3951.43	0.0102187
3961.07	0.010426
3970.71	0.0103868
3980.36	0.00930614
3990	0.0106815
3999.64	0.0102951
