Measurement: Infrared, Infrared Data Processed
Mineral: Margarosanite
Rruff sample: R120111
Ideal chemistry: Ca_2_Pb^2+^Si_3_O_9_
Locality: Parker shaft, Franklin, New Jersey, USA
Source: Caltech
Description: Pearly, colorless cleavages
x	intensity
399.193	0.115622
408.835	0.136766
418.477	0.117498
428.12	0.115489
437.762	0.162151
447.404	0.213872
457.047	0.211482
466.689	0.188504
476.331	0.109541
485.974	0.169555
495.616	0.156519
505.258	0.123564
514.901	0.0772458
524.543	0.0417297
534.185	0.0304133
543.828	0.02279
553.47	0.0219886
563.112	0.029379
572.755	0.0788869
582.397	0.0234531
592.039	0.0206136
601.682	0.0228611
611.324	0.0278795
620.966	0.034046
630.609	0.0442492
640.251	0.059683
649.893	0.0949124
659.536	0.164389
669.178	0.130673
678.82	0.106988
688.463	0.15225
698.105	0.210552
707.747	0.164248
717.39	0.106734
727.032	0.113128
736.674	0.124753
746.317	0.116927
755.959	0.0686588
765.601	0.0326539
775.244	0.0330211
784.886	0.0392857
794.528	0.0490758
804.171	0.0610987
813.813	0.0718621
823.455	0.0832279
833.098	0.0928002
842.74	0.10599
852.382	0.130576
862.025	0.156279
871.667	0.187969
881.309	0.22225
890.952	0.264187
900.594	0.308917
910.236	0.340429
919.879	0.348431
929.521	0.326908
939.163	0.306552
948.806	0.272856
958.448	0.263989
968.09	0.230852
977.733	0.213375
987.375	0.185123
997.017	0.174155
1006.66	0.192131
1016.3	0.162667
1025.94	0.111208
1035.59	0.0771842
1045.23	0.0547589
1054.87	0.0357449
1064.51	0.0208046
1074.16	0.0148323
1083.8	0.0112591
1093.44	0.00916042
1103.08	0.008003
1112.72	0.00774769
1122.37	0.00752106
1132.01	0.00678831
1141.65	0.00668235
1151.3	0.00642022
1160.94	0.00653747
1170.58	0.00662902
1180.22	0.00624281
1189.86	0.00617259
1199.51	0.00598403
1209.15	0.00601491
1218.79	0.00623749
1228.43	0.00613884
1238.08	0.00560604
1247.72	0.00630882
1257.36	0.00627716
1267	0.00648932
1276.64	0.00667441
1286.29	0.00686744
1295.93	0.00727515
1305.57	0.00715507
1315.21	0.00796974
1324.86	0.0087613
1334.5	0.00856217
1344.14	0.00901488
1353.78	0.00952929
1363.43	0.00971191
1373.07	0.010375
1382.71	0.0105665
1392.35	0.0106478
1401.99	0.0110376
1411.64	0.0110492
1421.28	0.0107645
1430.92	0.0112736
1440.57	0.0117668
1450.21	0.012062
1459.85	0.0115037
1469.49	0.011601
1479.13	0.0121803
1488.78	0.0114541
1498.42	0.0118958
1508.06	0.0109541
1517.7	0.0121071
1527.35	0.0125487
1536.99	0.0125961
1546.63	0.0138071
1556.27	0.0137693
1565.91	0.0161045
1575.56	0.0160878
1585.2	0.0186787
1594.84	0.01835
1604.48	0.017529
1614.13	0.0160686
1623.77	0.0149864
1633.41	0.0158633
1643.05	0.0167032
1652.7	0.0135111
1662.34	0.0161919
1671.98	0.0164257
1681.62	0.0161257
1691.27	0.0161259
1700.91	0.0140469
1710.55	0.0157043
1720.19	0.0148716
1729.84	0.0149736
1739.48	0.0152179
1749.12	0.0149215
1758.76	0.015654
1768.4	0.014879
1778.05	0.0162296
1787.69	0.015596
1797.33	0.0150538
1806.97	0.015543
1816.62	0.015318
1826.26	0.0156267
1835.9	0.0158599
1845.54	0.0150009
1855.18	0.016039
1864.83	0.0160526
1874.47	0.0148521
1884.11	0.0158145
1893.75	0.015542
1903.4	0.0148115
1913.04	0.016929
1922.68	0.0155365
1932.32	0.0135258
1941.97	0.0135094
1951.61	0.0141312
1961.25	0.0113052
1970.89	0.0128463
1980.54	0.0152131
1990.18	0.0124931
1999.82	0.012685
2009.46	0.0118606
2019.11	0.0138189
2028.75	0.0092922
2038.39	0.013089
2048.03	0.0158419
2057.67	0.0175322
2067.32	0.0180617
2076.96	0.0175196
2086.6	0.0180454
2096.24	0.018928
2105.89	0.0183932
2115.53	0.0202725
2125.17	0.0196105
2134.81	0.0189047
2144.45	0.0214946
2154.1	0.0176912
2163.74	0.0251257
2173.38	0.0222105
2183.02	0.0169659
2192.67	0.024203
2202.31	0.0223082
2211.95	0.022023
2221.59	0.0212036
2231.24	0.0223655
2240.88	0.023333
2250.52	0.0236616
2260.16	0.0225369
2269.8	0.0237302
2279.45	0.0263027
2289.09	0.0252667
2298.73	0.0255009
2308.38	0.025578
2318.02	0.0259054
2327.66	0.0251495
2337.3	0.0258885
2346.94	0.0266058
2356.59	0.0253158
2366.23	0.0260235
2375.87	0.0265182
2385.51	0.025988
2395.16	0.0264671
2404.8	0.0258626
2414.44	0.0267753
2424.08	0.0270951
2433.72	0.0276995
2443.37	0.0268948
2453.01	0.027163
2462.65	0.0279312
2472.29	0.0271937
2481.94	0.0265238
2491.58	0.026501
2501.22	0.028361
2510.86	0.0294251
2520.51	0.0289672
2530.15	0.0297457
2539.79	0.0286883
2549.43	0.0279775
2559.07	0.0289789
2568.72	0.0297268
2578.36	0.0288089
2588	0.0291706
2597.64	0.0303379
2607.29	0.0316816
2616.93	0.0308852
2626.57	0.0311248
2636.21	0.0313664
2645.86	0.0319275
2655.5	0.0317973
2665.14	0.032245
2674.78	0.0315793
2684.43	0.0316338
2694.07	0.0315608
2703.71	0.0325212
2713.35	0.0322938
2722.99	0.0333746
2732.64	0.0331082
2742.28	0.0314972
2751.92	0.0334046
2761.56	0.0327034
2771.21	0.0335358
2780.85	0.0330811
2790.49	0.0344929
2800.13	0.0348376
2809.78	0.0342334
2819.42	0.0351401
2829.06	0.0342029
2838.7	0.0357637
2848.34	0.0345634
2857.99	0.0350674
2867.63	0.036288
2877.27	0.0358446
2886.91	0.0368094
2896.56	0.0361011
2906.2	0.0364212
2915.84	0.0372212
2925.48	0.0370359
2935.13	0.0371058
2944.77	0.0367841
2954.41	0.0372739
2964.05	0.0370906
2973.7	0.0377311
2983.34	0.0374406
2992.98	0.0378969
3002.62	0.0366487
3012.26	0.0380782
3021.91	0.0370331
3031.55	0.0397021
3041.19	0.0376551
3050.83	0.0383973
3060.48	0.038852
3070.12	0.0415372
3079.76	0.0404935
3089.4	0.0389897
3099.05	0.0387653
3108.69	0.0397015
3118.33	0.040322
3127.97	0.0409204
3137.61	0.0409252
3147.26	0.0400264
3156.9	0.0425339
3166.54	0.0421994
3176.18	0.0401474
3185.83	0.0420563
3195.47	0.0420319
3205.11	0.0424414
3214.75	0.0433714
3224.4	0.0433321
3234.04	0.0431282
3243.68	0.0423165
3253.32	0.0436154
3262.97	0.0450406
3272.61	0.0446214
3282.25	0.0429881
3291.89	0.0434629
3301.53	0.0414974
3311.18	0.0435249
3320.82	0.0435394
3330.46	0.0430765
3340.1	0.0454612
3349.75	0.045636
3359.39	0.0444422
3369.03	0.0423351
3378.67	0.0441435
3388.32	0.0457585
3397.96	0.0457673
3407.6	0.0447479
3417.24	0.0448612
3426.89	0.0411833
3436.53	0.0433702
3446.17	0.0473197
3455.81	0.045297
3465.45	0.0415304
3475.1	0.0449452
3484.74	0.0430469
3494.38	0.0450778
3504.02	0.0412817
3513.67	0.0446927
3523.31	0.0441335
3532.95	0.0456025
3542.59	0.0421099
3552.24	0.0407963
3561.88	0.0429541
3571.52	0.0423659
3581.16	0.0413949
3590.8	0.038399
3600.45	0.0400501
3610.09	0.0432533
3619.73	0.0416462
3629.37	0.0361389
3639.02	0.0428283
3648.66	0.0399152
3658.3	0.0422905
3667.94	0.0383018
3677.59	0.0365247
3687.23	0.0388207
3696.87	0.0411829
3706.51	0.0411127
3716.16	0.0423935
3725.8	0.0422949
3735.44	0.0423162
3745.08	0.0374302
3754.72	0.0420587
3764.37	0.0393217
3774.01	0.0436931
3783.65	0.0427552
3793.29	0.0438729
3802.94	0.0407441
3812.58	0.0429522
3822.22	0.0399859
3831.86	0.0425075
3841.51	0.0430035
3851.15	0.0391548
3860.79	0.0418935
3870.43	0.0420098
3880.07	0.0421121
3889.72	0.0435104
3899.36	0.0426088
3909	0.0446324
3918.64	0.0450786
3928.29	0.0460918
3937.93	0.0445423
3947.57	0.0450907
3957.21	0.0460439
3966.86	0.0466034
3976.5	0.042111
3986.14	0.046499
3995.78	0.0450201
