Measurement: Infrared, Infrared Data Processed
Mineral: Marialite
Rruff sample: R050123
Ideal chemistry: Na_4_Al_3_Si_9_O_24_Cl
Locality: Pakistan
Source: Syed Shah
Description: Purple fragment
Measured chemistry: (Na_0.88_Ca_0.07_K_0.05_)_4_Al_3.00_Si_9.00_O_24_Cl_0.97
x	intensity
50.1401	0.0225645
52.0686	0.0184953
53.9971	0.0187869
55.9255	0.0222257
57.854	0.0232119
59.7825	0.0325117
61.7109	0.0261834
63.6394	0.0244732
65.5679	0.0255512
67.4963	0.0269262
69.4248	0.0254009
71.3533	0.0289111
73.2817	0.0305544
75.2102	0.0287208
77.1387	0.0254674
79.0671	0.0258036
80.9956	0.0261187
82.9241	0.0276523
84.8525	0.0270944
86.781	0.0266378
88.7095	0.0267858
90.6379	0.0280248
92.5664	0.0282792
94.4948	0.0296908
96.4233	0.0295343
98.3518	0.0298504
100.28	0.0294756
102.209	0.0303407
104.137	0.0307735
106.066	0.0312154
107.994	0.0312805
109.923	0.0318755
111.851	0.0323823
113.779	0.0326597
115.708	0.0318707
117.636	0.0314323
119.565	0.0309586
121.493	0.0314186
123.422	0.0311061
125.35	0.0311334
127.279	0.0303343
129.207	0.0295138
131.136	0.0287815
133.064	0.0286969
134.993	0.0283368
136.921	0.0282108
138.85	0.0277406
140.778	0.0275072
142.707	0.0272778
144.635	0.027577
146.563	0.0270498
148.492	0.0272082
150.42	0.0277786
152.349	0.0281847
154.277	0.02861
156.206	0.0291546
158.134	0.02979
160.063	0.0310453
161.991	0.0319336
163.92	0.0331199
165.848	0.0343329
167.777	0.0359201
169.705	0.0369584
171.633	0.0374673
173.562	0.0380398
175.49	0.0385123
177.419	0.0385817
179.347	0.038743
181.276	0.0383065
183.204	0.0378206
185.133	0.0368658
187.061	0.0354964
188.99	0.0339124
190.918	0.0330934
192.847	0.0324023
194.775	0.0317109
196.704	0.0313479
198.632	0.0311816
200.56	0.0309038
202.489	0.0308488
204.417	0.0302354
206.346	0.0298811
208.274	0.0297639
210.203	0.0301136
212.131	0.0305491
214.06	0.0312572
215.988	0.0317327
217.917	0.0323769
219.845	0.0328474
221.774	0.0329271
223.702	0.0326841
225.631	0.0324923
227.559	0.0319102
229.488	0.0310586
231.416	0.0305466
233.344	0.0300542
235.273	0.0294259
237.201	0.0289591
239.13	0.0283889
241.058	0.0279349
242.987	0.0278441
244.915	0.0279274
246.844	0.0277961
248.772	0.027942
250.701	0.0282139
252.629	0.0284129
254.558	0.0286925
256.486	0.0291831
258.414	0.0294755
260.343	0.0297551
262.271	0.029976
264.2	0.03052
266.128	0.0311939
268.057	0.0319592
269.985	0.0326411
271.914	0.033477
273.842	0.0344193
275.771	0.0353665
277.699	0.0364278
279.628	0.0377909
281.556	0.0387763
283.485	0.0399619
285.413	0.0411988
287.341	0.0421451
289.27	0.0424156
291.198	0.0424231
293.127	0.0422299
295.055	0.0421325
296.984	0.0420836
298.912	0.0420249
300.841	0.0421237
302.769	0.04258
304.698	0.0429906
306.626	0.0433492
308.555	0.0439623
310.483	0.0450542
312.411	0.0461768
314.34	0.0473139
316.269	0.0482302
318.197	0.0492455
320.125	0.0503974
322.054	0.0514775
323.982	0.0522047
325.911	0.0531614
327.839	0.054163
329.768	0.0550436
331.696	0.0558843
333.625	0.0568308
335.553	0.0575141
337.482	0.0583439
339.41	0.059181
341.339	0.0600721
343.267	0.0607733
345.195	0.0615834
347.124	0.0619841
349.052	0.0624986
350.981	0.0632335
352.909	0.0635227
354.838	0.0634811
356.766	0.0632836
358.695	0.0628418
360.623	0.062375
362.552	0.0620944
364.48	0.0620648
366.409	0.0621792
368.337	0.0622434
370.265	0.0623801
372.194	0.063191
374.122	0.0642467
376.051	0.0654938
377.979	0.0669082
379.908	0.0684468
381.836	0.0698692
383.765	0.0712671
385.693	0.0727416
387.622	0.0742876
389.55	0.0758492
391.479	0.0774266
393.407	0.0787181
395.336	0.0799359
397.264	0.0813056
399.192	0.082783
401.121	0.0838551
403.049	0.0847883
404.978	0.0854114
406.906	0.085812
408.835	0.0857731
410.763	0.0856834
412.692	0.0856623
414.62	0.0854531
416.549	0.0849158
418.477	0.0845241
420.406	0.0840905
422.334	0.0834727
424.262	0.0822739
426.191	0.0805121
428.12	0.0783756
430.048	0.0765901
431.976	0.0753283
433.905	0.0748128
435.833	0.0748661
437.762	0.0755155
439.69	0.076525
441.619	0.0775751
443.547	0.0788568
445.476	0.0804436
447.404	0.0813301
449.333	0.0814572
451.261	0.0813582
453.19	0.0809836
455.118	0.0801051
457.046	0.0790792
458.975	0.0775296
460.903	0.0756824
462.832	0.0736091
464.76	0.0711313
466.689	0.0681776
468.617	0.0646107
470.546	0.0600469
472.474	0.0554281
474.403	0.0507619
476.331	0.0463693
478.26	0.042989
480.188	0.0405204
482.116	0.0383736
484.045	0.0364124
485.974	0.0349575
487.902	0.0342091
489.83	0.0336086
491.759	0.0331999
493.687	0.0330625
495.616	0.0333346
497.544	0.0336658
499.473	0.0342535
501.401	0.0352348
503.33	0.0365275
505.258	0.0379495
507.187	0.0394907
509.115	0.0413248
511.043	0.0431631
512.972	0.0455041
514.9	0.0481462
516.829	0.050603
518.757	0.0533028
520.686	0.0559069
522.614	0.0585205
524.543	0.0614997
526.471	0.0643208
528.4	0.0670921
530.328	0.0703665
532.257	0.0735351
534.185	0.0764582
536.114	0.0796108
538.042	0.0827362
539.971	0.0851675
541.899	0.0866834
543.827	0.0875477
545.756	0.0877047
547.684	0.0868469
549.613	0.085079
551.541	0.0822364
553.47	0.0787923
555.398	0.0747574
557.327	0.0702647
559.255	0.0660615
561.184	0.0620088
563.112	0.0574917
565.041	0.0528419
566.969	0.0487724
568.898	0.0446028
570.826	0.0405988
572.755	0.0369111
574.683	0.0340335
576.611	0.0320909
578.54	0.0307648
580.468	0.0296987
582.397	0.0292976
584.325	0.0292296
586.254	0.0294489
588.182	0.0297984
590.111	0.0301054
592.039	0.0303015
593.968	0.0304157
595.896	0.0305957
597.824	0.0306506
599.753	0.0308341
601.682	0.0313368
603.61	0.0323806
605.538	0.0340587
607.467	0.0363313
609.395	0.0387921
611.324	0.0415363
613.252	0.0456203
615.181	0.0509315
617.109	0.0564911
619.038	0.0620762
620.966	0.0677279
622.894	0.071485
624.823	0.0718144
626.751	0.0687589
628.68	0.0635307
630.608	0.0573668
632.537	0.050926
634.465	0.0450689
636.394	0.0405578
638.322	0.0376295
640.251	0.0357041
642.179	0.0343496
644.108	0.0334156
646.036	0.0329932
647.965	0.0326432
649.893	0.0324398
651.822	0.0324288
653.75	0.0324005
655.678	0.0325241
657.607	0.0327819
659.535	0.0330027
661.464	0.0332833
663.392	0.0335589
665.321	0.0337408
667.249	0.0342558
669.178	0.0350545
671.106	0.0357458
673.035	0.0360695
674.963	0.0366817
676.892	0.0374469
678.82	0.0383861
680.749	0.0389289
682.677	0.0394555
684.606	0.0406144
686.534	0.0420717
688.462	0.042847
690.391	0.044157
692.319	0.0458739
694.248	0.0471364
696.176	0.048219
698.105	0.0494729
700.033	0.0508667
