Measurement: Infrared, Infrared Data Processed
Mineral: Melanovanadite
Rruff sample: R050555
Ideal chemistry: CaV^4+^_2_V^5+^_2_O_10_5H_2_O
Locality: Ragra mine, Cerro de Pasco Province, Pasco Department, Peru
Source: Dave Bunk Minerals
Description: Radiating aggregates of black prismatic crystals
Measured chemistry: (Ca_0.87_[box]_0.13_)_Σ=1_(V^5+^_2.26_V^4+^_1.74_)_Σ=4_O_10_·5H_2_O
x	intensity
399.193	0.30489
408.835	0.308801
418.477	0.309526
428.12	0.322998
437.762	0.342918
447.404	0.342991
457.047	0.344338
466.689	0.348944
476.331	0.352892
485.974	0.359356
495.616	0.363716
505.258	0.362343
514.901	0.364242
524.543	0.365403
534.185	0.354828
543.828	0.346004
553.47	0.330961
563.112	0.310489
572.755	0.292692
582.397	0.279583
592.039	0.272952
601.682	0.268965
611.324	0.268172
620.966	0.262603
630.609	0.254115
640.251	0.249611
649.893	0.237401
659.536	0.224531
669.178	0.214689
678.82	0.206733
688.463	0.202866
698.105	0.202212
707.747	0.206649
717.39	0.212944
727.032	0.222179
736.674	0.225028
746.317	0.220011
755.959	0.208818
765.601	0.196372
775.244	0.189233
784.886	0.189307
794.528	0.19876
804.171	0.22176
813.813	0.247021
823.455	0.246824
833.098	0.219566
842.74	0.182521
852.382	0.156595
862.025	0.139633
871.667	0.132792
881.309	0.136973
890.952	0.146846
900.594	0.162306
910.236	0.184364
919.879	0.216488
929.521	0.253285
939.163	0.276211
948.806	0.278028
958.448	0.265568
968.09	0.217907
977.733	0.180363
987.375	0.161768
997.017	0.136624
1006.66	0.0815792
1016.3	0.0461219
1025.94	0.0376632
1035.59	0.0369043
1045.23	0.0383345
1054.87	0.0402872
1064.51	0.0414302
1074.16	0.0428953
1083.8	0.0451576
1093.44	0.046835
1103.08	0.0478392
1112.72	0.0489466
1122.37	0.0497819
1132.01	0.0511762
1141.65	0.0520386
1151.3	0.0528499
1160.94	0.0540611
1170.58	0.0547898
1180.22	0.0559368
1189.86	0.0565915
1199.51	0.058224
1209.15	0.0586937
1218.79	0.0593547
1228.43	0.0611324
1238.08	0.0616334
1247.72	0.0628436
1257.36	0.0637037
1267	0.0653269
1276.64	0.0667875
1286.29	0.067817
1295.93	0.0688955
1305.57	0.0698552
1315.21	0.0714726
1324.86	0.07292
1334.5	0.0741384
1344.14	0.0749832
1353.78	0.0767622
1363.43	0.0786161
1373.07	0.0791317
1382.71	0.0804251
1392.35	0.081454
1401.99	0.0837113
1411.64	0.086113
1421.28	0.0869285
1430.92	0.0868268
1440.57	0.0872366
1450.21	0.088216
1459.85	0.0892338
1469.49	0.0888297
1479.13	0.0894434
1488.78	0.0909837
1498.42	0.0928178
1508.06	0.0950965
1517.7	0.0977515
1527.35	0.101049
1536.99	0.105112
1546.63	0.109986
1556.27	0.115459
1565.91	0.121515
1575.56	0.131784
1585.2	0.144549
1594.84	0.164283
1604.48	0.196369
1614.13	0.226377
1623.77	0.228894
1633.41	0.207093
1643.05	0.187654
1652.7	0.162768
1662.34	0.134016
1671.98	0.114751
1681.62	0.101835
1691.27	0.0952015
1700.91	0.0918396
1710.55	0.0901795
1720.19	0.0888693
1729.84	0.0885971
1739.48	0.0887483
1749.12	0.0887037
1758.76	0.0897775
1768.4	0.0907348
1778.05	0.0923615
1787.69	0.093204
1797.33	0.0951958
1806.97	0.0955244
1816.62	0.096816
1826.26	0.0985318
1835.9	0.100386
1845.54	0.101427
1855.18	0.102746
1864.83	0.105043
1874.47	0.106091
1884.11	0.108207
1893.75	0.110033
1903.4	0.11151
1913.04	0.111621
1922.68	0.112203
1932.32	0.114196
1941.97	0.115046
1951.61	0.116095
1961.25	0.118317
1970.89	0.113514
1980.54	0.118913
1990.18	0.123339
1999.82	0.123235
2009.46	0.128061
2019.11	0.128812
2028.75	0.131988
2038.39	0.136222
2048.03	0.136928
2057.67	0.139383
2067.32	0.140922
2076.96	0.144967
2086.6	0.14553
2096.24	0.146982
2105.89	0.149867
2115.53	0.150417
2125.17	0.151968
2134.81	0.151503
2144.45	0.152392
2154.1	0.151137
2163.74	0.16107
2173.38	0.158295
2183.02	0.159501
2192.67	0.163905
2202.31	0.164062
2211.95	0.159448
2221.59	0.165689
2231.24	0.165051
2240.88	0.166185
2250.52	0.166807
2260.16	0.168548
2269.8	0.171734
2279.45	0.172769
2289.09	0.170952
2298.73	0.1739
2308.38	0.1745
2318.02	0.175081
2327.66	0.17649
2337.3	0.176305
2346.94	0.177755
2356.59	0.178972
2366.23	0.179842
2375.87	0.183201
2385.51	0.182554
2395.16	0.186402
2404.8	0.187532
2414.44	0.188915
2424.08	0.189814
2433.72	0.193471
2443.37	0.196307
2453.01	0.196266
2462.65	0.198531
2472.29	0.201843
2481.94	0.203736
2491.58	0.204728
2501.22	0.208498
2510.86	0.209088
2520.51	0.210732
2530.15	0.214447
2539.79	0.216632
2549.43	0.218354
2559.07	0.221742
2568.72	0.225102
2578.36	0.225622
2588	0.230579
2597.64	0.230866
2607.29	0.233921
2616.93	0.238016
2626.57	0.238904
2636.21	0.241545
2645.86	0.245422
2655.5	0.249036
2665.14	0.249022
2674.78	0.252371
2684.43	0.255041
2694.07	0.259272
2703.71	0.261172
2713.35	0.265414
2722.99	0.270175
2732.64	0.272146
2742.28	0.274576
2751.92	0.278698
2761.56	0.284087
2771.21	0.287224
2780.85	0.291188
2790.49	0.295378
2800.13	0.299173
2809.78	0.302362
2819.42	0.308378
2829.06	0.312777
2838.7	0.316404
2848.34	0.322831
2857.99	0.328715
2867.63	0.329383
2877.27	0.336572
2886.91	0.341521
2896.56	0.346106
2906.2	0.352578
2915.84	0.359875
2925.48	0.364672
2935.13	0.370812
2944.77	0.37356
2954.41	0.377857
2964.05	0.38397
2973.7	0.390528
2983.34	0.394801
2992.98	0.404006
3002.62	0.409535
3012.26	0.415552
3021.91	0.422561
3031.55	0.429191
3041.19	0.437429
3050.83	0.444429
3060.48	0.454288
3070.12	0.459323
3079.76	0.464353
3089.4	0.47388
3099.05	0.481378
3108.69	0.490819
3118.33	0.496014
3127.97	0.50563
3137.61	0.514164
3147.26	0.519737
3156.9	0.530183
3166.54	0.539243
3176.18	0.54635
3185.83	0.550935
3195.47	0.558751
3205.11	0.564798
3214.75	0.569423
3224.4	0.567647
3234.04	0.576451
3243.68	0.578201
3253.32	0.581803
3262.97	0.584373
3272.61	0.58865
3282.25	0.595446
3291.89	0.600906
3301.53	0.603844
3311.18	0.61256
3320.82	0.621047
3330.46	0.621989
3340.1	0.63049
3349.75	0.630854
3359.39	0.638449
3369.03	0.632724
3378.67	0.626497
3388.32	0.625231
3397.96	0.616912
3407.6	0.620062
3417.24	0.610753
3426.89	0.612602
3436.53	0.608012
3446.17	0.60674
3455.81	0.600598
3465.45	0.597924
3475.1	0.589846
3484.74	0.583957
3494.38	0.57845
3504.02	0.567972
3513.67	0.560833
3523.31	0.551957
3532.95	0.545236
3542.59	0.531563
3552.24	0.515416
3561.88	0.495902
3571.52	0.477216
3581.16	0.46201
3590.8	0.43715
3600.45	0.41244
3610.09	0.39562
3619.73	0.37782
3629.37	0.366341
3639.02	0.355125
3648.66	0.357457
3658.3	0.358287
3667.94	0.351779
3677.59	0.361788
3687.23	0.361691
3696.87	0.362711
3706.51	0.365251
3716.16	0.371872
3725.8	0.374289
3735.44	0.377104
3745.08	0.382879
3754.72	0.384175
3764.37	0.386378
3774.01	0.394905
3783.65	0.398402
3793.29	0.394071
3802.94	0.403171
3812.58	0.400676
3822.22	0.405781
3831.86	0.409346
3841.51	0.409712
3851.15	0.421293
3860.79	0.418226
3870.43	0.425674
3880.07	0.422464
3889.72	0.425528
3899.36	0.434492
3909	0.428461
3918.64	0.434856
3928.29	0.435959
3937.93	0.439778
3947.57	0.442337
3957.21	0.443339
3966.86	0.441227
3976.5	0.449837
3986.14	0.446304
3995.78	0.449539
