Measurement: Infrared, Infrared Data Processed
Mineral: Mendipite
Rruff sample: R050669
Ideal chemistry: Pb^2+^_3_O_2_Cl_2_
Locality: Mendip Hills, Higher Pits, Somerset, England
Source: University of Arizona Mineral Museum
Description: Colorless coarsely fibrous aggregate
Measured chemistry: Pb_3.00_O_2_Cl_2.00_
x	intensity
399.193	0.126152
408.835	0.114358
418.477	0.108459
428.12	0.0988213
437.762	0.0854355
447.404	0.0642331
457.047	0.0315801
466.689	0.0129595
476.331	0.00898199
485.974	0.010832
495.616	0.0241455
505.258	0.0448033
514.901	0.0219607
524.543	0.00832997
534.185	0.00407426
543.828	0.00369147
553.47	0.0062924
563.112	0.00940137
572.755	0.0146381
582.397	0.0198034
592.039	0.0247194
601.682	0.0320709
611.324	0.0420049
620.966	0.0520185
630.609	0.0528364
640.251	0.0449405
649.893	0.0357048
659.536	0.030561
669.178	0.0332344
678.82	0.0622288
688.463	0.0444663
698.105	0.0309644
707.747	0.0234824
717.39	0.0154451
727.032	0.0121514
736.674	0.0106898
746.317	0.00871622
755.959	0.00694018
765.601	0.00594791
775.244	0.0052949
784.886	0.00503163
794.528	0.00454469
804.171	0.0040461
813.813	0.0037014
823.455	0.00411579
833.098	0.00791891
842.74	0.00529555
852.382	0.00308051
862.025	0.0014196
871.667	0.00170461
881.309	0.000952985
890.952	-0.000270411
900.594	-0.000401977
910.236	-0.000244232
919.879	-0.000232551
929.521	-0.000322763
939.163	-0.00039319
948.806	-9.12733e-05
958.448	0.000240218
968.09	0.00110995
977.733	0.000983927
987.375	0.00157803
997.017	0.00203398
1006.66	0.00237834
1016.3	0.00346081
1025.94	0.00359831
1035.59	0.00483774
1045.23	0.0123512
1054.87	0.00623322
1064.51	0.00614143
1074.16	0.00716105
1083.8	0.00757985
1093.44	0.00697219
1103.08	0.00639072
1112.72	0.00611096
1122.37	0.00537476
1132.01	0.00534412
1141.65	0.00561316
1151.3	0.00580988
1160.94	0.00621547
1170.58	0.00664441
1180.22	0.00721867
1189.86	0.00791685
1199.51	0.00879658
1209.15	0.00922926
1218.79	0.0101926
1228.43	0.0110517
1238.08	0.0123346
1247.72	0.0137959
1257.36	0.0158966
1267	0.018632
1276.64	0.0230795
1286.29	0.025666
1295.93	0.0288387
1305.57	0.0338324
1315.21	0.0399489
1324.86	0.0473419
1334.5	0.0575457
1344.14	0.0694189
1353.78	0.0809326
1363.43	0.090262
1373.07	0.100648
1382.71	0.116538
1392.35	0.135029
1401.99	0.142275
1411.64	0.13655
1421.28	0.1285
1430.92	0.121634
1440.57	0.109772
1450.21	0.0916108
1459.85	0.0704522
1469.49	0.0502423
1479.13	0.0331082
1488.78	0.0211808
1498.42	0.0143502
1508.06	0.00989931
1517.7	0.0074645
1527.35	0.00584308
1536.99	0.00438431
1546.63	0.00294443
1556.27	0.00159489
1565.91	0.000679087
1575.56	0.000301626
1585.2	0.000897799
1594.84	0.000501256
1604.48	0.00041927
1614.13	0.000172436
1623.77	-0.000217184
1633.41	-0.000224635
1643.05	-0.000140142
1652.7	-0.00051295
1662.34	-0.000401385
1671.98	-0.00033468
1681.62	-1.74493e-05
1691.27	0.000526883
1700.91	0.000795454
1710.55	0.00137115
1720.19	0.00202354
1729.84	0.00389131
1739.48	0.00314561
1749.12	0.000933066
1758.76	-8.668e-05
1768.4	-9.83477e-05
1778.05	-2.34246e-05
1787.69	-0.00011164
1797.33	-0.000245735
1806.97	-0.000306591
1816.62	-0.000378735
1826.26	-0.000377402
1835.9	-0.000161901
1845.54	-0.000187546
1855.18	-0.000143297
1864.83	-4.15891e-05
1874.47	-0.000102811
1884.11	2.04965e-05
1893.75	0.000354312
1903.4	0.000258729
1913.04	0.000129081
1922.68	0.000171959
1932.32	-0.000367709
1941.97	-7.73296e-05
1951.61	-0.000319965
1961.25	-0.000280358
1970.89	-0.00144771
1980.54	0.002258
1990.18	0.000659138
1999.82	9.07481e-05
2009.46	0.00067462
2019.11	0.000190809
2028.75	-0.000539966
2038.39	0.000117801
2048.03	0.000756607
2057.67	0.000344448
2067.32	-7.22706e-06
2076.96	0.000167958
2086.6	-0.000345178
2096.24	-0.000520602
2105.89	-0.000492804
2115.53	-0.000569448
2125.17	-0.00149956
2134.81	-0.00286544
2144.45	-0.00239796
2154.1	-0.00354895
2163.74	0.00229339
2173.38	-0.000593096
2183.02	0.000239119
2192.67	-0.000257708
2202.31	0.000149459
2211.95	0.000391021
2221.59	-0.000785381
2231.24	0.000446282
2240.88	-0.000155069
2250.52	-0.000774056
2260.16	0.000406459
2269.8	-3.25069e-05
2279.45	0.000586361
2289.09	0.000224955
2298.73	-0.000643052
2308.38	-0.000156246
2318.02	-0.00037048
2327.66	-0.00152788
2337.3	-0.00191355
2346.94	-0.00146829
2356.59	-0.00194282
2366.23	-0.0024208
2375.87	-0.00124873
2385.51	-0.000623271
2395.16	-0.000249319
2404.8	-0.000441961
2414.44	-0.000180967
2424.08	0.00029628
2433.72	-0.000329308
2443.37	0.000264324
2453.01	0.000101477
2462.65	-0.000406653
2472.29	-5.77941e-05
2481.94	-0.000424981
2491.58	-0.000418231
2501.22	-0.000647835
2510.86	-2.25827e-05
2520.51	-0.000575691
2530.15	-0.000414051
2539.79	-0.000411756
2549.43	-0.000548549
2559.07	-0.000853248
2568.72	-0.000378192
2578.36	5.73993e-05
2588	-0.00045266
2597.64	0.00017488
2607.29	0.00011006
2616.93	0.000328645
2626.57	-3.05176e-05
2636.21	-3.1881e-05
2645.86	-0.000126123
2655.5	0.000385568
2665.14	-0.000467017
2674.78	-0.000469148
2684.43	-0.000307351
2694.07	-0.000148989
2703.71	-0.000556067
2713.35	-0.000628047
2722.99	-0.000731908
2732.64	-0.00042136
2742.28	-0.00030724
2751.92	-0.000356041
2761.56	-0.000501707
2771.21	-0.000448734
2780.85	-0.000517786
2790.49	-0.000638992
2800.13	-0.000275508
2809.78	-0.000254363
2819.42	-0.000202894
2829.06	-0.000374645
2838.7	0.000227883
2848.34	-0.000140607
2857.99	-0.000101417
2867.63	-0.000547722
2877.27	-0.000152722
2886.91	-0.000368088
2896.56	0.000273496
2906.2	0.000746831
2915.84	0.00122012
2925.48	0.00138769
2935.13	-8.76784e-05
2944.77	-0.000462338
2954.41	0.00048992
2964.05	0.00107421
2973.7	5.26756e-05
2983.34	-0.000442415
2992.98	-0.000728801
3002.62	6.01858e-05
3012.26	8.05259e-05
3021.91	5.5179e-05
3031.55	0.000322029
3041.19	0.00101931
3050.83	0.00122383
3060.48	0.00131755
3070.12	0.001434
3079.76	0.00197487
3089.4	0.00183675
3099.05	0.00272663
3108.69	0.00258519
3118.33	0.00276151
3127.97	0.00344868
3137.61	0.00390589
3147.26	0.00406773
3156.9	0.00472921
3166.54	0.00455628
3176.18	0.00469302
3185.83	0.00509982
3195.47	0.00574952
3205.11	0.00597338
3214.75	0.00567308
3224.4	0.00674416
3234.04	0.00621854
3243.68	0.00683768
3253.32	0.00715823
3262.97	0.00761572
3272.61	0.00822608
3282.25	0.00803614
3291.89	0.00829707
3301.53	0.00903049
3311.18	0.00949775
3320.82	0.0098975
3330.46	0.0103388
3340.1	0.011086
3349.75	0.0120624
3359.39	0.0120025
3369.03	0.0124982
3378.67	0.013111
3388.32	0.0142655
3397.96	0.0154299
3407.6	0.0162974
3417.24	0.016769
3426.89	0.0166892
3436.53	0.0190636
3446.17	0.0212568
3455.81	0.0245518
3465.45	0.027461
3475.1	0.0313104
3484.74	0.0389497
3494.38	0.0554019
3504.02	0.0849442
3513.67	0.0672316
3523.31	0.0286489
3532.95	0.0167438
3542.59	0.0113422
3552.24	0.00568363
3561.88	0.00292149
3571.52	0.00152986
3581.16	0.000297531
3590.8	0.000635013
3600.45	0.000522613
3610.09	0.000446364
3619.73	9.90927e-06
3629.37	-0.000280798
3639.02	-0.000264868
3648.66	-0.000757977
3658.3	-3.93093e-05
3667.94	0.000200406
3677.59	0.000901192
3687.23	-0.000135928
3696.87	-0.000407085
3706.51	0.000316203
3716.16	0.000660017
3725.8	0.000382423
3735.44	0.000317961
3745.08	-0.000211313
3754.72	-0.00017795
3764.37	0.000367165
3774.01	2.41399e-06
3783.65	-0.000577092
3793.29	-0.000460595
3802.94	-0.000423104
3812.58	-0.000550896
3822.22	8.79019e-05
3831.86	0.00032641
3841.51	-0.000594199
3851.15	-3.83556e-05
3860.79	0.000130027
3870.43	-0.000455961
3880.07	-0.000513867
3889.72	-0.00096333
3899.36	-0.000121266
3909	-0.000738338
3918.64	-0.000614986
3928.29	-0.000114724
3937.93	-0.000888467
3947.57	-0.0018868
3957.21	-0.000505924
3966.86	-0.000735819
3976.5	0.000576362
3986.14	-0.00115277
3995.78	-1.98036e-05
