Measurement: Infrared, Infrared Data Processed
Mineral: Merwinite
Rruff sample: R070195
Ideal chemistry: Ca_3_Mg(SiO_4_)_2_
Locality: Commercial Quarry, Riverside County, California, USA
Source: California Institute of Technology
Description: Light gray massive
Measured chemistry: Ca_3.00_(Mg_0.98_Fe^2+^_0.02_)_Î£=1_(Si_1.00_O_4_)_2_
x	intensity
399.193	0.0612302
408.835	0.0612215
418.477	0.0527625
428.12	0.041738
437.762	0.0372666
447.404	0.0252669
457.047	0.0179834
466.689	0.016169
476.331	0.0154236
485.974	0.0179844
495.616	0.0236201
505.258	0.0389685
514.901	0.051352
524.543	0.0420141
534.185	0.041841
543.828	0.0323271
553.47	0.021104
563.112	0.0143369
572.755	0.00902027
582.397	0.00825907
592.039	0.00825048
601.682	0.00618157
611.324	0.00545978
620.966	0.00503249
630.609	0.00470236
640.251	0.00496594
649.893	0.00543404
659.536	0.00561348
669.178	0.0052346
678.82	0.00497858
688.463	0.00509067
698.105	0.00524939
707.747	0.00582079
717.39	0.00577179
727.032	0.00607164
736.674	0.00648492
746.317	0.00704062
755.959	0.00771823
765.601	0.00863681
775.244	0.00976362
784.886	0.0112254
794.528	0.0128102
804.171	0.0148765
813.813	0.0174694
823.455	0.0210638
833.098	0.0248042
842.74	0.029617
852.382	0.0363413
862.025	0.0449231
871.667	0.0454719
881.309	0.0500235
890.952	0.0476459
900.594	0.0430662
910.236	0.0413629
919.879	0.0429875
929.521	0.0487092
939.163	0.0507823
948.806	0.0480492
958.448	0.0420816
968.09	0.0368449
977.733	0.0333079
987.375	0.0314293
997.017	0.0321486
1006.66	0.0266495
1016.3	0.0280062
1025.94	0.0283493
1035.59	0.0209352
1045.23	0.0155366
1054.87	0.0107397
1064.51	0.007161
1074.16	0.00480059
1083.8	0.00384307
1093.44	0.00265722
1103.08	0.00191251
1112.72	0.00132982
1122.37	0.00114128
1132.01	0.000768841
1141.65	0.000939353
1151.3	0.000807538
1160.94	0.000619923
1170.58	0.000661538
1180.22	0.000566522
1189.86	0.000595463
1199.51	0.000541005
1209.15	0.0004696
1218.79	0.000705444
1228.43	0.000674549
1238.08	0.000751441
1247.72	0.000751994
1257.36	0.000673247
1267	0.000838283
1276.64	0.000851865
1286.29	0.000838835
1295.93	0.000976558
1305.57	0.00125447
1315.21	0.000997726
1324.86	0.00113522
1334.5	0.00125962
1344.14	0.00122043
1353.78	0.00145177
1363.43	0.00151841
1373.07	0.00170843
1382.71	0.00192924
1392.35	0.00210961
1401.99	0.00219145
1411.64	0.00237652
1421.28	0.00220883
1430.92	0.00234273
1440.57	0.00248042
1450.21	0.00234252
1459.85	0.0022845
1469.49	0.00243359
1479.13	0.00240411
1488.78	0.00246191
1498.42	0.00227256
1508.06	0.00233457
1517.7	0.00225281
1527.35	0.00214501
1536.99	0.00198021
1546.63	0.00203663
1556.27	0.00192283
1565.91	0.00191684
1575.56	0.00191556
1585.2	0.00202758
1594.84	0.00208263
1604.48	0.00211223
1614.13	0.00194727
1623.77	0.00195437
1633.41	0.00174773
1643.05	0.00182332
1652.7	0.0017727
1662.34	0.00167963
1671.98	0.00177367
1681.62	0.00168354
1691.27	0.00153465
1700.91	0.00151505
1710.55	0.00137689
1720.19	0.00157786
1729.84	0.00156304
1739.48	0.00176295
1749.12	0.00143221
1758.76	0.00126766
1768.4	0.00118939
1778.05	0.00136111
1787.69	0.00141092
1797.33	0.00146596
1806.97	0.0015761
1816.62	0.00152077
1826.26	0.00123236
1835.9	0.00142496
1845.54	0.00149027
1855.18	0.00109768
1864.83	0.00160787
1874.47	0.00087235
1884.11	0.00102972
1893.75	0.00142906
1903.4	0.000770851
1913.04	0.0012195
1922.68	0.000571832
1932.32	0.00116088
1941.97	0.00100045
1951.61	-0.000458284
1961.25	0.00017619
1970.89	0.00116607
1980.54	0.00014668
1990.18	0.0011343
1999.82	0.00060724
2009.46	0.000957236
2019.11	0.000283238
2028.75	0.000793897
2038.39	0.000770495
2048.03	0.000900952
2057.67	0.00141795
2067.32	0.00133754
2076.96	0.00123144
2086.6	0.0019233
2096.24	0.00112861
2105.89	0.00208688
2115.53	0.00128794
2125.17	0.00175649
2134.81	0.00178041
2144.45	0.00154159
2154.1	0.000684798
2163.74	0.00319794
2173.38	0.00389355
2183.02	0.00294583
2192.67	0.00316809
2202.31	0.00231168
2211.95	0.00249711
2221.59	0.00274626
2231.24	0.00206321
2240.88	0.00325451
2250.52	0.00339355
2260.16	0.00252751
2269.8	0.00360045
2279.45	0.00260693
2289.09	0.00222875
2298.73	0.00227982
2308.38	0.00260827
2318.02	0.00266306
2327.66	0.00272548
2337.3	0.00310841
2346.94	0.00271352
2356.59	0.00311432
2366.23	0.00328381
2375.87	0.00285298
2385.51	0.00270541
2395.16	0.00286109
2404.8	0.00267831
2414.44	0.00318933
2424.08	0.00289693
2433.72	0.00283237
2443.37	0.00292104
2453.01	0.00305507
2462.65	0.00267738
2472.29	0.00300721
2481.94	0.00272613
2491.58	0.00331176
2501.22	0.00255067
2510.86	0.0026469
2520.51	0.00301485
2530.15	0.0028934
2539.79	0.00313108
2549.43	0.00339027
2559.07	0.0037819
2568.72	0.00270302
2578.36	0.00331606
2588	0.00294769
2597.64	0.00341813
2607.29	0.00361635
2616.93	0.00343846
2626.57	0.00301475
2636.21	0.00317278
2645.86	0.00341148
2655.5	0.00345869
2665.14	0.00336293
2674.78	0.00334594
2684.43	0.00301391
2694.07	0.00330409
2703.71	0.00317029
2713.35	0.00335848
2722.99	0.0033906
2732.64	0.00314511
2742.28	0.002775
2751.92	0.00322518
2761.56	0.00333144
2771.21	0.0036105
2780.85	0.00294703
2790.49	0.0031316
2800.13	0.00283057
2809.78	0.00374853
2819.42	0.00342597
2829.06	0.00323645
2838.7	0.00301824
2848.34	0.00347437
2857.99	0.00382111
2867.63	0.00296651
2877.27	0.00268257
2886.91	0.00369016
2896.56	0.00341461
2906.2	0.00357352
2915.84	0.00407417
2925.48	0.00383337
2935.13	0.00350796
2944.77	0.00342448
2954.41	0.00320496
2964.05	0.0035248
2973.7	0.00349566
2983.34	0.00306412
2992.98	0.00362911
3002.62	0.00325087
3012.26	0.00403869
3021.91	0.00276564
3031.55	0.00302916
3041.19	0.00370819
3050.83	0.00346988
3060.48	0.00337735
3070.12	0.00386659
3079.76	0.00332078
3089.4	0.00297124
3099.05	0.00417616
3108.69	0.00361025
3118.33	0.00344834
3127.97	0.00387844
3137.61	0.00364468
3147.26	0.00368348
3156.9	0.00414909
3166.54	0.00401549
3176.18	0.003122
3185.83	0.00353156
3195.47	0.00360052
3205.11	0.0038186
3214.75	0.00432952
3224.4	0.00339363
3234.04	0.00388584
3243.68	0.00419405
3253.32	0.00347508
3262.97	0.00321889
3272.61	0.00341752
3282.25	0.00435824
3291.89	0.00356701
3301.53	0.00367891
3311.18	0.00368591
3320.82	0.00338879
3330.46	0.0038023
3340.1	0.00360616
3349.75	0.00330417
3359.39	0.00281195
3369.03	0.00280884
3378.67	0.00331385
3388.32	0.00368038
3397.96	0.00300612
3407.6	0.00344136
3417.24	0.00351987
3426.89	0.00404354
3436.53	0.00332985
3446.17	0.00326538
3455.81	0.00368138
3465.45	0.00381862
3475.1	0.00457307
3484.74	0.00334347
3494.38	0.00349441
3504.02	0.00297245
3513.67	0.00352653
3523.31	0.00360619
3532.95	0.00257868
3542.59	0.00483615
3552.24	0.00404853
3561.88	0.00371937
3571.52	0.0039737
3581.16	0.00447059
3590.8	0.00411611
3600.45	0.00374421
3610.09	0.00437535
3619.73	0.00422888
3629.37	0.00411993
3639.02	0.00410295
3648.66	0.0031814
3658.3	0.00324337
3667.94	0.00430739
3677.59	0.0040922
3687.23	0.00426168
3696.87	0.00542503
3706.51	0.0033485
3716.16	0.00272066
3725.8	0.003275
3735.44	0.00260696
3745.08	0.00393741
3754.72	0.00391238
3764.37	0.00452105
3774.01	0.00275901
3783.65	0.00316921
3793.29	0.00346494
3802.94	0.00263211
3812.58	0.00360852
3822.22	0.00419461
3831.86	0.0051261
3841.51	0.00368514
3851.15	0.00311197
3860.79	0.00296123
3870.43	0.00417012
3880.07	0.0039283
3889.72	0.00395137
3899.36	0.00241663
3909	0.00413429
3918.64	0.00335345
3928.29	0.00410811
3937.93	0.00360935
3947.57	0.00416499
3957.21	0.00334152
3966.86	0.00335467
3976.5	0.00426591
3986.14	0.00439422
3995.78	0.00411326
