Measurement: Infrared, Infrared Data Processed
Mineral: Meta-autunite
Rruff sample: R050612
Ideal chemistry: Ca(U^6+^O_2_)_2_(PO_4_)_2_6H_2_O
Locality: Daybreak mine, Mt. Spokane, Spokane County, Washington, USA
Source: Dave Bunk Minerals
Description: Green thin tabular crystal
Measured chemistry: (Ca_0.85_[box]_0.15_)_Σ=1_(U_1.00_O_2_)_2_(P_1.00_O_4_)_2_·3((H_2_O)_0.90_(H_3_O)^+^_0.10_)
x	intensity
399.193	0.130998
408.835	0.128248
418.477	0.131722
428.12	0.135103
437.762	0.136526
447.404	0.139739
457.047	0.142078
466.689	0.145141
476.331	0.145578
485.974	0.149178
495.616	0.155847
505.258	0.161396
514.901	0.173112
524.543	0.188928
534.185	0.217977
543.828	0.201353
553.47	0.168497
563.112	0.154362
572.755	0.14767
582.397	0.145125
592.039	0.144606
601.682	0.149895
611.324	0.155032
620.966	0.143
630.609	0.124328
640.251	0.110889
649.893	0.102027
659.536	0.0939614
669.178	0.0889325
678.82	0.0863151
688.463	0.0832469
698.105	0.0810136
707.747	0.0786088
717.39	0.0770584
727.032	0.0751037
736.674	0.0751036
746.317	0.0744939
755.959	0.0753985
765.601	0.0760536
775.244	0.0783494
784.886	0.083246
794.528	0.0933492
804.171	0.106337
813.813	0.11577
823.455	0.116011
833.098	0.110792
842.74	0.105956
852.382	0.112942
862.025	0.14389
871.667	0.207693
881.309	0.302487
890.952	0.373348
900.594	0.394774
910.236	0.386147
919.879	0.338364
929.521	0.279176
939.163	0.269263
948.806	0.291383
958.448	0.335045
968.09	0.384504
977.733	0.411044
987.375	0.429549
997.017	0.438295
1006.66	0.422355
1016.3	0.395518
1025.94	0.358826
1035.59	0.325179
1045.23	0.286264
1054.87	0.250812
1064.51	0.222358
1074.16	0.198062
1083.8	0.178888
1093.44	0.163029
1103.08	0.151292
1112.72	0.140954
1122.37	0.129025
1132.01	0.11109
1141.65	0.0865305
1151.3	0.0672131
1160.94	0.0545812
1170.58	0.044069
1180.22	0.0370409
1189.86	0.0316249
1199.51	0.0279545
1209.15	0.0241333
1218.79	0.0200472
1228.43	0.017169
1238.08	0.0153272
1247.72	0.0144804
1257.36	0.0145495
1267	0.0144532
1276.64	0.014738
1286.29	0.0142903
1295.93	0.0143562
1305.57	0.013858
1315.21	0.0139673
1324.86	0.0138122
1334.5	0.0136695
1344.14	0.0137993
1353.78	0.0135926
1363.43	0.0140663
1373.07	0.0138896
1382.71	0.0148521
1392.35	0.0156855
1401.99	0.0162462
1411.64	0.0171923
1421.28	0.0182255
1430.92	0.0189002
1440.57	0.0193431
1450.21	0.0189122
1459.85	0.0186481
1469.49	0.0180125
1479.13	0.0177851
1488.78	0.0179516
1498.42	0.0183029
1508.06	0.0196711
1517.7	0.0211043
1527.35	0.0224877
1536.99	0.0235074
1546.63	0.0240658
1556.27	0.0254837
1565.91	0.0275882
1575.56	0.0310117
1585.2	0.0358363
1594.84	0.0443408
1604.48	0.0583052
1614.13	0.078548
1623.77	0.0986139
1633.41	0.105509
1643.05	0.0937767
1652.7	0.0769289
1662.34	0.0587041
1671.98	0.044397
1681.62	0.0342236
1691.27	0.0266887
1700.91	0.0225084
1710.55	0.0182534
1720.19	0.0160992
1729.84	0.0140309
1739.48	0.0110551
1749.12	0.00963396
1758.76	0.00967196
1768.4	0.0106681
1778.05	0.00938081
1787.69	0.00935548
1797.33	0.00939774
1806.97	0.00916486
1816.62	0.00852828
1826.26	0.00863019
1835.9	0.00854767
1845.54	0.00856951
1855.18	0.00928812
1864.83	0.00882282
1874.47	0.00858487
1884.11	0.00919041
1893.75	0.0084116
1903.4	0.00751776
1913.04	0.00694405
1922.68	0.00646213
1932.32	0.00488662
1941.97	0.00621206
1951.61	0.00468274
1961.25	0.0030002
1970.89	-0.00197121
1980.54	0.00613581
1990.18	0.00307741
1999.82	0.00255996
2009.46	0.00254533
2019.11	0.00101333
2028.75	-0.00194597
2038.39	0.000188997
2048.03	0.00520073
2057.67	0.00866909
2067.32	0.0062838
2076.96	0.00942456
2086.6	0.0112114
2096.24	0.0106995
2105.89	0.0101965
2115.53	0.011127
2125.17	0.00888086
2134.81	0.00605227
2144.45	0.00711221
2154.1	0.00176331
2163.74	0.00753196
2173.38	0.00245848
2183.02	0.00923423
2192.67	0.00664097
2202.31	0.00663549
2211.95	0.0113863
2221.59	0.00989113
2231.24	0.00984496
2240.88	0.01317
2250.52	0.0125116
2260.16	0.0117597
2269.8	0.0128518
2279.45	0.0145933
2289.09	0.0164515
2298.73	0.0167821
2308.38	0.0185597
2318.02	0.0190327
2327.66	0.0195148
2337.3	0.0197508
2346.94	0.0195492
2356.59	0.019733
2366.23	0.020016
2375.87	0.0183515
2385.51	0.0177325
2395.16	0.0181125
2404.8	0.0190922
2414.44	0.0186825
2424.08	0.0178123
2433.72	0.0194783
2443.37	0.0195649
2453.01	0.0190075
2462.65	0.0197012
2472.29	0.0187646
2481.94	0.0206645
2491.58	0.0199677
2501.22	0.0191982
2510.86	0.0212518
2520.51	0.0191362
2530.15	0.0197587
2539.79	0.0197842
2549.43	0.0206656
2559.07	0.0198943
2568.72	0.0209592
2578.36	0.021697
2588	0.0212394
2597.64	0.0213016
2607.29	0.0220137
2616.93	0.0235188
2626.57	0.0253287
2636.21	0.0250042
2645.86	0.0260768
2655.5	0.0265364
2665.14	0.0271177
2674.78	0.0275733
2684.43	0.0278469
2694.07	0.0299453
2703.71	0.029282
2713.35	0.0297463
2722.99	0.0318133
2732.64	0.030794
2742.28	0.0326122
2751.92	0.0344343
2761.56	0.0343761
2771.21	0.0358593
2780.85	0.036605
2790.49	0.0383704
2800.13	0.0388728
2809.78	0.0400707
2819.42	0.0408658
2829.06	0.0432683
2838.7	0.0447964
2848.34	0.0436919
2857.99	0.0467443
2867.63	0.0464631
2877.27	0.0498552
2886.91	0.0510587
2896.56	0.0523672
2906.2	0.0532946
2915.84	0.0548968
2925.48	0.058855
2935.13	0.0608831
2944.77	0.0621635
2954.41	0.0643378
2964.05	0.0665468
2973.7	0.0696714
2983.34	0.0700892
2992.98	0.0708608
3002.62	0.0742491
3012.26	0.0776025
3021.91	0.0797132
3031.55	0.0805815
3041.19	0.0858139
3050.83	0.0877179
3060.48	0.0905956
3070.12	0.0912816
3079.76	0.0942604
3089.4	0.0986931
3099.05	0.101075
3108.69	0.105356
3118.33	0.107784
3127.97	0.111848
3137.61	0.115131
3147.26	0.11908
3156.9	0.123092
3166.54	0.128441
3176.18	0.130873
3185.83	0.13304
3195.47	0.139051
3205.11	0.14097
3214.75	0.146608
3224.4	0.146953
3234.04	0.149793
3243.68	0.151307
3253.32	0.150597
3262.97	0.155518
3272.61	0.155939
3282.25	0.159025
3291.89	0.162127
3301.53	0.16617
3311.18	0.170756
3320.82	0.175607
3330.46	0.177754
3340.1	0.18092
3349.75	0.186073
3359.39	0.191573
3369.03	0.190412
3378.67	0.194991
3388.32	0.200858
3397.96	0.205226
3407.6	0.208524
3417.24	0.201413
3426.89	0.204373
3436.53	0.204728
3446.17	0.206996
3455.81	0.209186
3465.45	0.204646
3475.1	0.206264
3484.74	0.205885
3494.38	0.210275
3504.02	0.209417
3513.67	0.208298
3523.31	0.204139
3532.95	0.200197
3542.59	0.198863
3552.24	0.189783
3561.88	0.188457
3571.52	0.17711
3581.16	0.169762
3590.8	0.151268
3600.45	0.135409
3610.09	0.118676
3619.73	0.0954812
3629.37	0.0781697
3639.02	0.0618457
3648.66	0.0523992
3658.3	0.0454642
3667.94	0.0384765
3677.59	0.0359102
3687.23	0.0336405
3696.87	0.0315509
3706.51	0.0255441
3716.16	0.0308963
3725.8	0.0320585
3735.44	0.0325086
3745.08	0.0324551
3754.72	0.0350088
3764.37	0.0279599
3774.01	0.0319194
3783.65	0.0295044
3793.29	0.0333422
3802.94	0.0367266
3812.58	0.0312091
3822.22	0.0345013
3831.86	0.0302964
3841.51	0.0320101
3851.15	0.031569
3860.79	0.0359362
3870.43	0.0300758
3880.07	0.0303898
3889.72	0.0376987
3899.36	0.0348421
3909	0.0339267
3918.64	0.0367997
3928.29	0.0344698
3937.93	0.0358985
3947.57	0.0364995
3957.21	0.0360112
3966.86	0.0356462
3976.5	0.0371042
3986.14	0.0397178
3995.78	0.0363002
