Measurement: Infrared, Infrared Data Processed
Mineral: Microcline
Rruff sample: R050054
Ideal chemistry: KAlSi_3_O_8_
Locality: Kenticha, Negele area, Sidamo Province, Ethiopia
Source: Rock Currier
Description: Light blue single crystal
Measured chemistry: (K_0.96_Na_0.04_)Al_1.00_Si_3.00_O_8_
x	intensity
399.193	0.132294
408.835	0.19387
418.477	0.220853
428.12	0.164115
437.762	0.135335
447.404	0.10507
457.047	0.059869
466.689	0.0654538
476.331	0.0353404
485.974	0.0233435
495.616	0.0224825
505.258	0.0261687
514.901	0.0346822
524.543	0.0596317
534.185	0.116674
543.828	0.0856809
553.47	0.0772287
563.112	0.115509
572.755	0.142592
582.397	0.143579
592.039	0.116231
601.682	0.0914518
611.324	0.0599236
620.966	0.0319598
630.609	0.0297835
640.251	0.0471778
649.893	0.0702713
659.536	0.0303814
669.178	0.0228047
678.82	0.0229839
688.463	0.0262353
698.105	0.0336937
707.747	0.0499287
717.39	0.085046
727.032	0.110129
736.674	0.0677003
746.317	0.0471652
755.959	0.0546698
765.601	0.0867201
775.244	0.0813526
784.886	0.0395982
794.528	0.0248513
804.171	0.0191382
813.813	0.0189387
823.455	0.0194953
833.098	0.0209884
842.74	0.0240083
852.382	0.0276926
862.025	0.0321852
871.667	0.0379599
881.309	0.0441515
890.952	0.0527413
900.594	0.0635862
910.236	0.0760315
919.879	0.0924665
929.521	0.113645
939.163	0.140554
948.806	0.175027
958.448	0.215241
968.09	0.261083
977.733	0.30818
987.375	0.348886
997.017	0.362648
1006.66	0.349387
1016.3	0.311371
1025.94	0.267988
1035.59	0.241949
1045.23	0.233747
1054.87	0.208451
1064.51	0.161025
1074.16	0.149388
1083.8	0.145392
1093.44	0.137936
1103.08	0.126932
1112.72	0.131246
1122.37	0.138461
1132.01	0.148835
1141.65	0.131357
1151.3	0.101051
1160.94	0.0749538
1170.58	0.0534392
1180.22	0.0387559
1189.86	0.0272579
1199.51	0.0196901
1209.15	0.0150943
1218.79	0.0119759
1228.43	0.00991838
1238.08	0.00801735
1247.72	0.00701197
1257.36	0.00598905
1267	0.00493286
1276.64	0.00460283
1286.29	0.00388323
1295.93	0.00382788
1305.57	0.00359215
1315.21	0.00368313
1324.86	0.00336779
1334.5	0.00329151
1344.14	0.00345137
1353.78	0.00347096
1363.43	0.00329229
1373.07	0.00367689
1382.71	0.00345883
1392.35	0.00368306
1401.99	0.00373085
1411.64	0.00405358
1421.28	0.00367416
1430.92	0.00380696
1440.57	0.00380431
1450.21	0.00405279
1459.85	0.003931
1469.49	0.00423144
1479.13	0.00406857
1488.78	0.00353892
1498.42	0.0032351
1508.06	0.00218998
1517.7	0.00295819
1527.35	0.00364451
1536.99	0.00372692
1546.63	0.00445288
1556.27	0.00406488
1565.91	0.00596851
1575.56	0.0052563
1585.2	0.00713911
1594.84	0.0075776
1604.48	0.00809736
1614.13	0.0083365
1623.77	0.00823682
1633.41	0.0080056
1643.05	0.00804628
1652.7	0.00555407
1662.34	0.00777569
1671.98	0.00716999
1681.62	0.0057022
1691.27	0.00600272
1700.91	0.00389457
1710.55	0.00523805
1720.19	0.00506918
1729.84	0.00460717
1739.48	0.0042701
1749.12	0.00409004
1758.76	0.00461804
1768.4	0.0042022
1778.05	0.00481601
1787.69	0.00410062
1797.33	0.0043608
1806.97	0.00393109
1816.62	0.00338158
1826.26	0.00356538
1835.9	0.0032316
1845.54	0.00289022
1855.18	0.00394314
1864.83	0.00282771
1874.47	0.00305987
1884.11	0.00224534
1893.75	0.00154022
1903.4	0.0015305
1913.04	0.00222486
1922.68	0.00138586
1932.32	-0.000459758
1941.97	-0.000573824
1951.61	-0.00128603
1961.25	-0.00315059
1970.89	-0.00737034
1980.54	-0.00489493
1990.18	-0.00481617
1999.82	-0.0053841
2009.46	-0.00599348
2019.11	-0.00858968
2028.75	-0.00651015
2038.39	-0.00428451
2048.03	-0.00142081
2057.67	0.000225659
2067.32	-0.002901
2076.96	0.00210107
2086.6	0.000254378
2096.24	-0.00169531
2105.89	-0.00163117
2115.53	-0.000325912
2125.17	-0.000516683
2134.81	-0.00285425
2144.45	-0.000482102
2154.1	-0.00732265
2163.74	0.00258312
2173.38	-0.003094
2183.02	-0.00288611
2192.67	0.00149757
2202.31	0.00102209
2211.95	0.000425166
2221.59	0.00294332
2231.24	0.00119975
2240.88	0.00284269
2250.52	0.00168661
2260.16	0.00164971
2269.8	0.00210236
2279.45	0.00382002
2289.09	0.00492876
2298.73	0.00452549
2308.38	0.00627079
2318.02	0.00698431
2327.66	0.00763614
2337.3	0.00714983
2346.94	0.00655637
2356.59	0.00754851
2366.23	0.00683265
2375.87	0.0067869
2385.51	0.00560363
2395.16	0.00545025
2404.8	0.00731636
2414.44	0.00591258
2424.08	0.00585938
2433.72	0.00642581
2443.37	0.0073077
2453.01	0.00762981
2462.65	0.00757548
2472.29	0.00595425
2481.94	0.00689087
2491.58	0.00687864
2501.22	0.00756764
2510.86	0.00786393
2520.51	0.00739745
2530.15	0.00766666
2539.79	0.00836508
2549.43	0.00858028
2559.07	0.00806651
2568.72	0.00767644
2578.36	0.00824055
2588	0.00736348
2597.64	0.00758794
2607.29	0.00899858
2616.93	0.0089456
2626.57	0.00794347
2636.21	0.00907522
2645.86	0.00929719
2655.5	0.00780683
2665.14	0.00770599
2674.78	0.00859534
2684.43	0.00755476
2694.07	0.0082514
2703.71	0.00756076
2713.35	0.00723117
2722.99	0.00704983
2732.64	0.00754199
2742.28	0.00744236
2751.92	0.00794837
2761.56	0.00906953
2771.21	0.00792124
2780.85	0.00913085
2790.49	0.0080456
2800.13	0.00833776
2809.78	0.00798802
2819.42	0.0087222
2829.06	0.00928173
2838.7	0.00921871
2848.34	0.0101994
2857.99	0.00878902
2867.63	0.00938721
2877.27	0.01082
2886.91	0.0105618
2896.56	0.0103724
2906.2	0.0102968
2915.84	0.0127651
2925.48	0.0122915
2935.13	0.0113443
2944.77	0.0120295
2954.41	0.0104814
2964.05	0.0100224
2973.7	0.0112151
2983.34	0.012649
2992.98	0.0106394
3002.62	0.0118448
3012.26	0.00981021
3021.91	0.0104609
3031.55	0.00972243
3041.19	0.00967061
3050.83	0.0102357
3060.48	0.0109481
3070.12	0.0120103
3079.76	0.0106455
3089.4	0.0112822
3099.05	0.0105128
3108.69	0.0124263
3118.33	0.0120121
3127.97	0.0116646
3137.61	0.0132558
3147.26	0.0108824
3156.9	0.0149794
3166.54	0.0142797
3176.18	0.0119302
3185.83	0.0130909
3195.47	0.0148742
3205.11	0.0132496
3214.75	0.014241
3224.4	0.0143129
3234.04	0.0147231
3243.68	0.0124176
3253.32	0.0150104
3262.97	0.014849
3272.61	0.0173419
3282.25	0.0144511
3291.89	0.0153298
3301.53	0.0165628
3311.18	0.0151778
3320.82	0.0158027
3330.46	0.0165525
3340.1	0.0155991
3349.75	0.0156286
3359.39	0.0157365
3369.03	0.017671
3378.67	0.0167695
3388.32	0.0167467
3397.96	0.0172517
3407.6	0.0154056
3417.24	0.014543
3426.89	0.0188482
3436.53	0.0176734
3446.17	0.015835
3455.81	0.014394
3465.45	0.015765
3475.1	0.0150898
3484.74	0.0182609
3494.38	0.0149112
3504.02	0.0168083
3513.67	0.0149091
3523.31	0.0134582
3532.95	0.0118515
3542.59	0.0131557
3552.24	0.0126139
3561.88	0.0137459
3571.52	0.0139935
3581.16	0.0130608
3590.8	0.0134492
3600.45	0.015323
3610.09	0.0134786
3619.73	0.0132833
3629.37	0.010802
3639.02	0.00985321
3648.66	0.0138296
3658.3	0.0135242
3667.94	0.0109154
3677.59	0.01353
3687.23	0.0107065
3696.87	0.0153012
3706.51	0.00965668
3716.16	0.0174895
3725.8	0.0142565
3735.44	0.0138019
3745.08	0.0125975
3754.72	0.0148919
3764.37	0.0138803
3774.01	0.014614
3783.65	0.0206109
3793.29	0.0171296
3802.94	0.0151255
3812.58	0.0192306
3822.22	0.0153757
3831.86	0.0110905
3841.51	0.0189913
3851.15	0.0116038
3860.79	0.0148974
3870.43	0.0121758
3880.07	0.016755
3889.72	0.0224436
3899.36	0.0131699
3909	0.0138319
3918.64	0.0166453
3928.29	0.0186259
3937.93	0.0181685
3947.57	0.016714
3957.21	0.0201501
3966.86	0.0162941
3976.5	0.0209593
3986.14	0.0145931
3995.78	0.0170276
