Measurement: Infrared, Infrared Data Processed
Mineral: Microcline
Rruff sample: R050193
Ideal chemistry: KAlSi_3_O_8_
Locality: Devil's Head, Douglas County, Colorado, USA
Source: Dave Bunk Minerals
Description: White to colorless heterogeneous mixture of K and Na feldspar in a cluster of crystals. Crystal structure determined, presented below. This sample is known as an intermediate microcline in the literature.
Measured chemistry: (K_0.929_Na_0.071_)(Al_1.005_Si_2.994_Fe_0.001_)O_7.993_F_0.007_  ; Light Band :  (Na_0.973_K_0.007_Ca_0.020_)(Al_1.020_Si_2.980_)O_8_ ; Dark Band
x	intensity
50.1401	0.00441542
52.0686	0.00661808
53.9971	0.00591243
55.9255	0.00480003
57.854	0.00745166
59.7825	0.0105255
61.7109	0.00925746
63.6394	0.00773622
65.5679	0.00760552
67.4963	0.00642413
69.4248	0.00691495
71.3533	0.00620326
73.2817	0.00687748
75.2102	0.00774739
77.1387	0.00854524
79.0671	0.00983958
80.9956	0.011017
82.9241	0.0117467
84.8525	0.012248
86.781	0.0125302
88.7095	0.0129088
90.6379	0.0136519
92.5664	0.0146621
94.4948	0.0148808
96.4233	0.0145919
98.3518	0.0139996
100.28	0.013125
102.209	0.0123056
104.137	0.0116148
106.066	0.0113263
107.994	0.0114251
109.923	0.0116905
111.851	0.0123242
113.779	0.0125517
115.708	0.0128725
117.636	0.0123897
119.565	0.01155
121.493	0.010731
123.422	0.0107239
125.35	0.0109848
127.279	0.0109854
129.207	0.01154
131.136	0.0127247
133.064	0.0133331
134.993	0.013852
136.921	0.0141994
138.85	0.0142226
140.778	0.0139417
142.707	0.0136823
144.635	0.0137089
146.563	0.0138454
148.492	0.0138198
150.42	0.0134765
152.349	0.0131359
154.277	0.0126725
156.206	0.0122987
158.134	0.0122232
160.063	0.0118396
161.991	0.0118641
163.92	0.0119713
165.848	0.011443
167.777	0.0107312
169.705	0.0102426
171.633	0.0101236
173.562	0.0107579
175.49	0.0112382
177.419	0.0113799
179.347	0.0120137
181.276	0.0127292
183.204	0.0131583
185.133	0.0134795
187.061	0.0132537
188.99	0.0130874
190.918	0.01314
192.847	0.0130258
194.775	0.0128159
196.704	0.0129614
198.632	0.0129389
200.56	0.0130787
202.489	0.0131157
204.417	0.0128508
206.346	0.0125508
208.274	0.0121785
210.203	0.0120201
212.131	0.0119389
214.06	0.011897
215.988	0.0122702
217.917	0.0125427
219.845	0.0124134
221.774	0.0120468
223.702	0.0121376
225.631	0.0121076
227.559	0.0121866
229.488	0.0121305
231.416	0.0121873
233.344	0.0121846
235.273	0.0121371
237.201	0.0121651
239.13	0.01216
241.058	0.0122448
242.987	0.0124338
244.915	0.0125787
246.844	0.012658
248.772	0.013042
250.701	0.0134151
252.629	0.0134445
254.558	0.0134763
256.486	0.0134762
258.414	0.0137499
260.343	0.0140468
262.271	0.0141887
264.2	0.0141807
266.128	0.0146122
268.057	0.0150473
269.985	0.0155456
271.914	0.0161024
273.842	0.0166949
275.771	0.017086
277.699	0.0173993
279.628	0.0175932
281.556	0.0177219
283.485	0.0178276
285.413	0.0181584
287.341	0.0186568
289.27	0.0190647
291.198	0.0194389
293.127	0.0199821
295.055	0.0206033
296.984	0.0212371
298.912	0.0217337
300.841	0.022179
302.769	0.0225954
304.698	0.0231932
306.626	0.0238562
308.555	0.0246451
310.483	0.0257266
312.411	0.0267155
314.34	0.0275082
316.269	0.0284422
318.197	0.0295432
320.125	0.0307095
322.054	0.0319678
323.982	0.0333953
325.911	0.034536
327.839	0.035277
329.768	0.0356028
331.696	0.0351739
333.625	0.0344429
335.553	0.0336422
337.482	0.0322294
339.41	0.0303799
341.339	0.0290415
343.267	0.028495
345.195	0.0286029
347.124	0.0289347
349.052	0.0291942
350.981	0.0296436
352.909	0.0307795
354.838	0.0324512
356.766	0.0339509
358.695	0.0355389
360.623	0.0373363
362.552	0.0391684
364.48	0.0409274
366.409	0.0424169
368.337	0.0434447
370.265	0.0445387
372.194	0.0454769
374.122	0.0458877
376.051	0.0455243
377.979	0.0446172
379.908	0.0433121
381.836	0.0423884
383.765	0.0418725
385.693	0.0412373
387.622	0.0405607
389.55	0.0399333
391.479	0.0396365
393.407	0.040006
395.336	0.0405208
397.264	0.0409575
399.192	0.041442
401.121	0.0419797
403.049	0.0423146
404.978	0.0424998
406.906	0.0428993
408.835	0.0438013
410.763	0.0452252
412.692	0.0468861
414.62	0.0483291
416.549	0.0493718
418.477	0.0496173
420.406	0.0494713
422.334	0.0493511
424.262	0.04922
426.191	0.0490122
428.12	0.0487257
430.048	0.048157
431.976	0.0471616
433.905	0.0458289
435.833	0.0446444
437.762	0.0431207
439.69	0.0415523
441.619	0.040109
443.547	0.0387405
445.476	0.0372628
447.404	0.0358651
449.333	0.0341891
451.261	0.032497
453.19	0.0313534
455.118	0.030697
457.046	0.030484
458.975	0.0309522
460.903	0.0314775
462.832	0.0318195
464.76	0.0319605
466.689	0.0314553
468.617	0.0302602
470.546	0.0292263
472.474	0.0285105
474.403	0.0280152
476.331	0.0276798
478.26	0.0270397
480.188	0.0257729
482.116	0.0245262
484.045	0.0238813
485.974	0.0233815
487.902	0.0228359
489.83	0.0223675
491.759	0.0221244
493.687	0.0220747
495.616	0.0219482
497.544	0.0221869
499.473	0.0223775
501.401	0.0224079
503.33	0.0226887
505.258	0.0230428
507.187	0.0232128
509.115	0.0233884
511.043	0.0234201
512.972	0.0234274
514.9	0.023833
516.829	0.0248602
518.757	0.0259073
520.686	0.0267507
522.614	0.027833
524.543	0.0296056
526.471	0.0315897
528.4	0.0336309
530.328	0.0354237
532.257	0.0369572
534.185	0.0379551
536.114	0.0380127
538.042	0.0374214
539.971	0.0363198
541.899	0.0347344
543.827	0.0329983
545.756	0.0311336
547.684	0.0297492
549.613	0.029225
551.541	0.0292538
553.47	0.0297226
555.398	0.030512
557.327	0.0315157
559.255	0.0328793
561.184	0.0343778
563.112	0.0357148
565.041	0.0371692
566.969	0.0384196
568.898	0.0397803
570.826	0.0416506
572.755	0.0435318
574.683	0.0452563
576.611	0.0465334
578.54	0.0476947
580.468	0.0486965
582.397	0.0491772
584.325	0.0491938
586.254	0.0491248
588.182	0.048925
590.111	0.048255
592.039	0.047172
593.968	0.0458165
595.896	0.0445484
597.824	0.043249
599.753	0.0415985
601.682	0.0398241
603.61	0.0385814
605.538	0.0376775
607.467	0.0362855
609.395	0.0346646
611.324	0.0329041
613.252	0.0313581
615.181	0.0296925
617.109	0.028423
619.038	0.0274163
620.966	0.0264766
622.894	0.025486
624.823	0.0254266
626.751	0.0265076
628.68	0.0280889
630.608	0.0294682
632.537	0.0300155
634.465	0.0300392
636.394	0.0305586
638.322	0.0318343
640.251	0.0333021
642.179	0.0348138
644.108	0.0368315
646.036	0.0384474
647.965	0.0390202
649.893	0.0384222
651.822	0.0368911
653.75	0.0349427
655.678	0.0332015
657.607	0.0317924
659.535	0.0306937
661.464	0.0296784
663.392	0.0289261
665.321	0.0285661
667.249	0.0284652
669.178	0.0285002
671.106	0.0285582
673.035	0.0286086
674.963	0.0283216
676.892	0.0284095
678.82	0.0290842
680.749	0.0294067
682.677	0.0293946
684.606	0.0290158
686.534	0.0296489
688.462	0.0303149
690.391	0.0308546
692.319	0.031062
694.248	0.0317826
696.176	0.0326411
698.105	0.0330184
700.033	0.0335702
