Measurement: Infrared, Infrared Data Processed
Mineral: Mimetite
Rruff sample: R050527
Ideal chemistry: Pb^2+^_5_(As^5+^O_4_)_3_Cl
Locality: Tsumeb mine, Tsumeb, Otavi District, Oshikoto, Namibia
Source: University of Arizona Mineral Museum
Description: Yellow hexagonal prisms, monoclinic polytype
Measured chemistry: Pb_5.00_(As_1.00_O_4_)_3_Cl_1.00_
x	intensity
399.193	0.612694
408.835	0.561965
418.477	0.387774
428.12	0.261898
437.762	0.161108
447.404	0.0977521
457.047	0.0704027
466.689	0.0533793
476.331	0.0453211
485.974	0.0407343
495.616	0.0403086
505.258	0.040343
514.901	0.0423449
524.543	0.0463492
534.185	0.0586953
543.828	0.0730394
553.47	0.084094
563.112	0.100121
572.755	0.109001
582.397	0.12166
592.039	0.144011
601.682	0.17069
611.324	0.19731
620.966	0.224339
630.609	0.25357
640.251	0.286329
649.893	0.322221
659.536	0.359793
669.178	0.397848
678.82	0.437586
688.463	0.479628
698.105	0.520301
707.747	0.56099
717.39	0.599146
727.032	0.63815
736.674	0.670023
746.317	0.702042
755.959	0.722266
765.601	0.720453
775.244	0.648901
784.886	0.496491
794.528	0.423059
804.171	0.410044
813.813	0.348065
823.455	0.245178
833.098	0.170205
842.74	0.117701
852.382	0.075622
862.025	0.0495188
871.667	0.0329507
881.309	0.0231294
890.952	0.0168184
900.594	0.0139644
910.236	0.0122123
919.879	0.0128593
929.521	0.0118089
939.163	0.0142573
948.806	0.0207302
958.448	0.0238781
968.09	0.0183676
977.733	0.0206111
987.375	0.0228196
997.017	0.0239081
1006.66	0.0250647
1016.3	0.0208376
1025.94	0.0173946
1035.59	0.0166863
1045.23	0.0164162
1054.87	0.0165802
1064.51	0.0168246
1074.16	0.017877
1083.8	0.0187781
1093.44	0.0200903
1103.08	0.0213561
1112.72	0.0218906
1122.37	0.0226016
1132.01	0.0238254
1141.65	0.0242564
1151.3	0.0246975
1160.94	0.0252788
1170.58	0.026003
1180.22	0.0267695
1189.86	0.028016
1199.51	0.0287086
1209.15	0.0292494
1218.79	0.0298227
1228.43	0.0306262
1238.08	0.0312174
1247.72	0.032218
1257.36	0.0334716
1267	0.034955
1276.64	0.0375245
1286.29	0.0378482
1295.93	0.039414
1305.57	0.0408956
1315.21	0.0416043
1324.86	0.042345
1334.5	0.0425154
1344.14	0.043056
1353.78	0.0439283
1363.43	0.0451876
1373.07	0.0457979
1382.71	0.047164
1392.35	0.0490544
1401.99	0.0499827
1411.64	0.0509129
1421.28	0.0513682
1430.92	0.0525537
1440.57	0.0535134
1450.21	0.0555405
1459.85	0.0583206
1469.49	0.059894
1479.13	0.060814
1488.78	0.0599061
1498.42	0.0588665
1508.06	0.0581017
1517.7	0.0579898
1527.35	0.0584528
1536.99	0.0586695
1546.63	0.0584738
1556.27	0.0581004
1565.91	0.0585146
1575.56	0.0586283
1585.2	0.0584
1594.84	0.0578693
1604.48	0.0568623
1614.13	0.056501
1623.77	0.0560089
1633.41	0.0562437
1643.05	0.0564424
1652.7	0.055946
1662.34	0.0559413
1671.98	0.0560335
1681.62	0.0558349
1691.27	0.0558645
1700.91	0.0552753
1710.55	0.0534273
1720.19	0.0542868
1729.84	0.0545485
1739.48	0.0521208
1749.12	0.0540182
1758.76	0.0574879
1768.4	0.0591984
1778.05	0.0599129
1787.69	0.0602448
1797.33	0.0601764
1806.97	0.0607986
1816.62	0.0610282
1826.26	0.062041
1835.9	0.0621601
1845.54	0.0629569
1855.18	0.0631591
1864.83	0.0627847
1874.47	0.0637176
1884.11	0.0641581
1893.75	0.063938
1903.4	0.0648146
1913.04	0.064593
1922.68	0.0652442
1932.32	0.0651848
1941.97	0.0654976
1951.61	0.0662269
1961.25	0.0659296
1970.89	0.0665184
1980.54	0.0695885
1990.18	0.0697223
1999.82	0.0676115
2009.46	0.0686279
2019.11	0.0689468
2028.75	0.0679881
2038.39	0.0698348
2048.03	0.0708028
2057.67	0.0697279
2067.32	0.0683887
2076.96	0.0704416
2086.6	0.0691696
2096.24	0.0680235
2105.89	0.0692251
2115.53	0.0681721
2125.17	0.0688705
2134.81	0.0691692
2144.45	0.0693105
2154.1	0.0710042
2163.74	0.0712753
2173.38	0.0705911
2183.02	0.0720944
2192.67	0.0705509
2202.31	0.0709308
2211.95	0.0714217
2221.59	0.0699985
2231.24	0.0711375
2240.88	0.0715923
2250.52	0.0714621
2260.16	0.0713348
2269.8	0.0720475
2279.45	0.0719923
2289.09	0.0716853
2298.73	0.0714765
2308.38	0.071369
2318.02	0.0716058
2327.66	0.0716012
2337.3	0.0714948
2346.94	0.0712076
2356.59	0.0715472
2366.23	0.0714704
2375.87	0.0714062
2385.51	0.0706652
2395.16	0.0715139
2404.8	0.0717581
2414.44	0.0722674
2424.08	0.0713236
2433.72	0.072188
2443.37	0.0725742
2453.01	0.0720998
2462.65	0.0724747
2472.29	0.0722989
2481.94	0.0724083
2491.58	0.0731214
2501.22	0.0727549
2510.86	0.0722442
2520.51	0.0730196
2530.15	0.0732749
2539.79	0.0730374
2549.43	0.0728562
2559.07	0.0733344
2568.72	0.0732017
2578.36	0.0727251
2588	0.0730609
2597.64	0.0733552
2607.29	0.0733168
2616.93	0.0733032
2626.57	0.0734174
2636.21	0.0738486
2645.86	0.0733754
2655.5	0.0733264
2665.14	0.0732825
2674.78	0.0727981
2684.43	0.0731336
2694.07	0.0733382
2703.71	0.0731138
2713.35	0.0742562
2722.99	0.0739081
2732.64	0.0739566
2742.28	0.0731494
2751.92	0.0745214
2761.56	0.0742349
2771.21	0.0739674
2780.85	0.0740465
2790.49	0.0740841
2800.13	0.0745012
2809.78	0.0750298
2819.42	0.0743849
2829.06	0.0742112
2838.7	0.074572
2848.34	0.0736397
2857.99	0.0738141
2867.63	0.0739955
2877.27	0.074498
2886.91	0.0736759
2896.56	0.0741231
2906.2	0.073739
2915.84	0.073673
2925.48	0.0741
2935.13	0.074807
2944.77	0.0738532
2954.41	0.0733977
2964.05	0.0749641
2973.7	0.0736433
2983.34	0.0750001
2992.98	0.0749379
3002.62	0.076569
3012.26	0.0751811
3021.91	0.0768518
3031.55	0.0747
3041.19	0.0755725
3050.83	0.0756072
3060.48	0.0749308
3070.12	0.0745163
3079.76	0.076048
3089.4	0.0763146
3099.05	0.075678
3108.69	0.0758218
3118.33	0.0759014
3127.97	0.0769041
3137.61	0.0763438
3147.26	0.076588
3156.9	0.0767379
3166.54	0.0759037
3176.18	0.076376
3185.83	0.0764566
3195.47	0.0758117
3205.11	0.0761117
3214.75	0.0763089
3224.4	0.0759277
3234.04	0.0762508
3243.68	0.075969
3253.32	0.0771333
3262.97	0.0767037
3272.61	0.0760839
3282.25	0.0775011
3291.89	0.0766337
3301.53	0.0770552
3311.18	0.07689
3320.82	0.0764926
3330.46	0.077177
3340.1	0.0772294
3349.75	0.0761923
3359.39	0.0767336
3369.03	0.0772724
3378.67	0.0770809
3388.32	0.0776773
3397.96	0.0769939
3407.6	0.0773865
3417.24	0.0771105
3426.89	0.0778742
3436.53	0.0774023
3446.17	0.0767341
3455.81	0.0771054
3465.45	0.0777759
3475.1	0.0771698
3484.74	0.0786014
3494.38	0.0765923
3504.02	0.0782114
3513.67	0.0778714
3523.31	0.0779056
3532.95	0.0782478
3542.59	0.0770088
3552.24	0.0777096
3561.88	0.0784073
3571.52	0.0780523
3581.16	0.0777173
3590.8	0.0773226
3600.45	0.0780734
3610.09	0.0767386
3619.73	0.0778853
3629.37	0.0789337
3639.02	0.0784537
3648.66	0.078207
3658.3	0.0774603
3667.94	0.0770691
3677.59	0.0796948
3687.23	0.0788827
3696.87	0.0797514
3706.51	0.0792128
3716.16	0.0793365
3725.8	0.0797903
3735.44	0.0794145
3745.08	0.0791767
3754.72	0.0797344
3764.37	0.0798291
3774.01	0.0784395
3783.65	0.0793125
3793.29	0.0804415
3802.94	0.0797282
3812.58	0.0801551
3822.22	0.0791759
3831.86	0.0807222
3841.51	0.0801371
3851.15	0.0803487
3860.79	0.0801532
3870.43	0.0810928
3880.07	0.0801752
3889.72	0.0805951
3899.36	0.080549
3909	0.0793932
3918.64	0.0806076
3928.29	0.079651
3937.93	0.0799508
3947.57	0.0813728
3957.21	0.0796854
3966.86	0.0802369
3976.5	0.0790957
3986.14	0.0810222
3995.78	0.0809805
