Measurement: Infrared, Infrared Data Processed
Mineral: Mimetite
Rruff sample: R050007
Ideal chemistry: Pb^2+^_5_(As^5+^O_4_)_3_Cl
Locality: Pingtouling, Guangdong, China
Source: Eugene Schlepp
Description: Reddish orange colored hexagonal prisms
Measured chemistry: Pb_5.00_((As_0.99_P_0.01_)O_4_)_3_Cl_1.00_
x	intensity
399.193	0.17072
408.835	0.164291
418.477	0.125486
428.12	0.0842964
437.762	0.0490631
447.404	0.0290391
457.047	0.0212108
466.689	0.0187382
476.331	0.0181814
485.974	0.0179909
495.616	0.0186904
505.258	0.0199812
514.901	0.0222667
524.543	0.0255871
534.185	0.0321374
543.828	0.0377614
553.47	0.0436458
563.112	0.0516491
572.755	0.0532827
582.397	0.0600004
592.039	0.0683912
601.682	0.077463
611.324	0.0869748
620.966	0.0955274
630.609	0.105255
640.251	0.115855
649.893	0.12724
659.536	0.138804
669.178	0.151775
678.82	0.16465
688.463	0.177993
698.105	0.192665
707.747	0.208742
717.39	0.224469
727.032	0.241457
736.674	0.259364
746.317	0.27829
755.959	0.297244
765.601	0.314642
775.244	0.312394
784.886	0.26116
794.528	0.220772
804.171	0.228174
813.813	0.196716
823.455	0.13978
833.098	0.100065
842.74	0.0684064
852.382	0.0443974
862.025	0.0296491
871.667	0.0215811
881.309	0.0169773
890.952	0.0142107
900.594	0.0126297
910.236	0.0121243
919.879	0.0132267
929.521	0.0135342
939.163	0.0156216
948.806	0.0214055
958.448	0.0236789
968.09	0.0203738
977.733	0.0230786
987.375	0.0252596
997.017	0.0265911
1006.66	0.0277604
1016.3	0.0237095
1025.94	0.0218709
1035.59	0.0224471
1045.23	0.0227543
1054.87	0.0235802
1064.51	0.024913
1074.16	0.0265936
1083.8	0.0280198
1093.44	0.0298643
1103.08	0.030941
1112.72	0.0322744
1122.37	0.0334535
1132.01	0.0346771
1141.65	0.0358687
1151.3	0.0375046
1160.94	0.0388086
1170.58	0.0400424
1180.22	0.0409378
1189.86	0.0423191
1199.51	0.0436187
1209.15	0.0446463
1218.79	0.0458544
1228.43	0.0470324
1238.08	0.0483183
1247.72	0.0494977
1257.36	0.0506813
1267	0.0519249
1276.64	0.0533907
1286.29	0.0548262
1295.93	0.0565407
1305.57	0.05813
1315.21	0.0592843
1324.86	0.0601476
1334.5	0.0611178
1344.14	0.0621869
1353.78	0.063575
1363.43	0.0649127
1373.07	0.0661575
1382.71	0.0678029
1392.35	0.0689475
1401.99	0.0703502
1411.64	0.071589
1421.28	0.0722898
1430.92	0.0727777
1440.57	0.0736577
1450.21	0.0746835
1459.85	0.0758142
1469.49	0.0768534
1479.13	0.0777664
1488.78	0.0791871
1498.42	0.0805036
1508.06	0.082225
1517.7	0.0838014
1527.35	0.0859686
1536.99	0.0876337
1546.63	0.0884446
1556.27	0.0898179
1565.91	0.0912059
1575.56	0.0921042
1585.2	0.0929103
1594.84	0.0930174
1604.48	0.0928934
1614.13	0.0934765
1623.77	0.0940451
1633.41	0.0948127
1643.05	0.0952434
1652.7	0.0956911
1662.34	0.0960357
1671.98	0.096736
1681.62	0.0976989
1691.27	0.0986285
1700.91	0.0990933
1710.55	0.0993265
1720.19	0.100656
1729.84	0.101641
1739.48	0.102261
1749.12	0.102981
1758.76	0.103974
1768.4	0.105022
1778.05	0.10566
1787.69	0.106943
1797.33	0.107618
1806.97	0.108863
1816.62	0.109561
1826.26	0.110754
1835.9	0.111425
1845.54	0.112134
1855.18	0.113346
1864.83	0.113932
1874.47	0.115012
1884.11	0.116232
1893.75	0.117374
1903.4	0.11823
1913.04	0.119369
1922.68	0.118212
1932.32	0.119402
1941.97	0.120798
1951.61	0.122492
1961.25	0.122949
1970.89	0.123701
1980.54	0.127628
1990.18	0.12561
1999.82	0.126666
2009.46	0.127386
2019.11	0.128184
2028.75	0.128836
2038.39	0.130065
2048.03	0.132678
2057.67	0.131523
2067.32	0.132472
2076.96	0.133665
2086.6	0.133958
2096.24	0.135605
2105.89	0.134944
2115.53	0.135531
2125.17	0.136306
2134.81	0.136196
2144.45	0.136676
2154.1	0.134923
2163.74	0.141945
2173.38	0.140286
2183.02	0.140751
2192.67	0.144642
2202.31	0.14322
2211.95	0.143566
2221.59	0.146301
2231.24	0.144935
2240.88	0.14676
2250.52	0.147551
2260.16	0.149109
2269.8	0.148907
2279.45	0.151138
2289.09	0.151165
2298.73	0.151499
2308.38	0.153018
2318.02	0.15321
2327.66	0.153634
2337.3	0.154331
2346.94	0.155028
2356.59	0.156061
2366.23	0.155833
2375.87	0.157135
2385.51	0.157863
2395.16	0.157906
2404.8	0.159465
2414.44	0.15976
2424.08	0.160994
2433.72	0.161476
2443.37	0.162293
2453.01	0.16313
2462.65	0.163971
2472.29	0.164017
2481.94	0.164376
2491.58	0.165847
2501.22	0.167079
2510.86	0.167034
2520.51	0.16822
2530.15	0.167871
2539.79	0.169461
2549.43	0.170859
2559.07	0.170787
2568.72	0.17212
2578.36	0.17257
2588	0.172225
2597.64	0.175102
2607.29	0.17521
2616.93	0.176429
2626.57	0.176846
2636.21	0.176983
2645.86	0.178343
2655.5	0.179185
2665.14	0.179237
2674.78	0.179591
2684.43	0.181239
2694.07	0.181167
2703.71	0.182356
2713.35	0.18192
2722.99	0.18383
2732.64	0.184611
2742.28	0.185101
2751.92	0.186548
2761.56	0.187238
2771.21	0.187504
2780.85	0.188237
2790.49	0.189003
2800.13	0.189972
2809.78	0.190395
2819.42	0.191302
2829.06	0.192348
2838.7	0.193927
2848.34	0.193636
2857.99	0.1943
2867.63	0.194366
2877.27	0.19618
2886.91	0.19691
2896.56	0.197831
2906.2	0.198993
2915.84	0.198687
2925.48	0.197413
2935.13	0.196888
2944.77	0.198355
2954.41	0.198558
2964.05	0.200812
2973.7	0.200512
2983.34	0.201429
2992.98	0.202385
3002.62	0.203306
3012.26	0.204986
3021.91	0.206167
3031.55	0.207084
3041.19	0.207263
3050.83	0.206879
3060.48	0.209301
3070.12	0.208785
3079.76	0.210081
3089.4	0.211182
3099.05	0.212126
3108.69	0.21129
3118.33	0.213614
3127.97	0.213742
3137.61	0.215084
3147.26	0.215723
3156.9	0.21687
3166.54	0.216991
3176.18	0.21783
3185.83	0.219493
3195.47	0.218305
3205.11	0.217925
3214.75	0.22035
3224.4	0.219886
3234.04	0.221186
3243.68	0.222047
3253.32	0.221691
3262.97	0.222428
3272.61	0.223263
3282.25	0.224745
3291.89	0.224342
3301.53	0.223587
3311.18	0.226127
3320.82	0.225385
3330.46	0.225322
3340.1	0.226128
3349.75	0.227895
3359.39	0.228033
3369.03	0.229173
3378.67	0.229705
3388.32	0.229105
3397.96	0.230276
3407.6	0.230553
3417.24	0.230699
3426.89	0.233295
3436.53	0.232343
3446.17	0.233462
3455.81	0.233985
3465.45	0.234376
3475.1	0.235726
3484.74	0.236548
3494.38	0.236661
3504.02	0.236578
3513.67	0.238643
3523.31	0.239899
3532.95	0.239752
3542.59	0.240285
3552.24	0.240068
3561.88	0.240028
3571.52	0.243509
3581.16	0.242967
3590.8	0.242978
3600.45	0.243184
3610.09	0.243965
3619.73	0.244105
3629.37	0.246366
3639.02	0.245209
3648.66	0.246368
3658.3	0.24677
3667.94	0.246486
3677.59	0.247423
3687.23	0.24906
3696.87	0.251573
3706.51	0.249895
3716.16	0.251636
3725.8	0.251937
3735.44	0.252501
3745.08	0.253572
3754.72	0.25396
3764.37	0.252803
3774.01	0.254794
3783.65	0.255829
3793.29	0.256143
3802.94	0.257673
3812.58	0.25858
3822.22	0.258753
3831.86	0.261551
3841.51	0.260564
3851.15	0.260766
3860.79	0.261015
3870.43	0.262551
3880.07	0.26247
3889.72	0.262949
3899.36	0.26187
3909	0.266904
3918.64	0.263798
3928.29	0.266014
3937.93	0.266337
3947.57	0.265909
3957.21	0.266734
3966.86	0.270011
3976.5	0.271198
3986.14	0.27039
3995.78	0.27257
