Measurement: Infrared, Infrared Data Processed
Mineral: Molybdenite
Rruff sample: R050209
Ideal chemistry: Mo^4+^S^2-^_2_
Locality: Boss Mountain mine, Hendrix Lake, British Columbia, Canada
Source: Lloyd Twaites
Description: Foiliated gray colored, represents the 2H polytype
Measured chemistry: Mo_1.00_S_2.00_
x	intensity
374.123	0.241556
383.765	0.248723
393.407	0.24307
403.05	0.243826
412.692	0.246419
422.334	0.251545
431.976	0.254046
441.619	0.261251
451.261	0.266734
460.904	0.28354
470.546	0.238457
480.188	0.254722
489.83	0.263119
499.473	0.273045
509.115	0.277097
518.758	0.280408
528.4	0.28371
538.042	0.288024
547.684	0.290608
557.327	0.294866
566.969	0.298295
576.611	0.301351
586.254	0.307244
595.896	0.316011
605.538	0.315466
615.181	0.315655
624.823	0.319363
634.466	0.322657
644.108	0.325431
653.75	0.329812
663.393	0.33327
673.035	0.33416
682.677	0.337626
692.319	0.340562
701.962	0.344742
711.604	0.350831
721.246	0.353025
730.889	0.357229
740.531	0.35891
750.173	0.361817
759.816	0.36545
769.458	0.367924
779.101	0.372075
788.743	0.373978
798.385	0.376561
808.028	0.37863
817.67	0.380808
827.312	0.383871
836.955	0.385648
846.597	0.39
856.239	0.393689
865.881	0.400819
875.524	0.412096
885.166	0.397774
894.808	0.402078
904.451	0.406407
914.093	0.408928
923.736	0.411281
933.378	0.41449
943.02	0.418674
952.663	0.421887
962.305	0.423781
971.947	0.426159
981.59	0.428232
991.232	0.430492
1000.87	0.433019
1010.52	0.436651
1020.16	0.439919
1029.8	0.444516
1039.44	0.449323
1049.09	0.452936
1058.73	0.456661
1068.37	0.460575
1078.01	0.4661
1087.65	0.473346
1097.3	0.478414
1106.94	0.476898
1116.58	0.481455
1126.22	0.484756
1135.87	0.488795
1145.51	0.497607
1155.15	0.499514
1164.79	0.498084
1174.44	0.494508
1184.08	0.486954
1193.72	0.481666
1203.36	0.483689
1213.01	0.484038
1222.65	0.484067
1232.29	0.485518
1241.93	0.487879
1251.58	0.489955
1261.22	0.49212
1270.86	0.495247
1280.5	0.497891
1290.14	0.500707
1299.79	0.503029
1309.43	0.505523
1319.07	0.508487
1328.71	0.510784
1338.36	0.513667
1348	0.517124
1357.64	0.520939
1367.28	0.52508
1376.92	0.530563
1386.57	0.534208
1396.21	0.540956
1405.85	0.545916
1415.49	0.552055
1425.14	0.555166
1434.78	0.557026
1444.42	0.557567
1454.06	0.557169
1463.71	0.555579
1473.35	0.552878
1482.99	0.551983
1492.63	0.551664
1502.28	0.552151
1511.92	0.552955
1521.56	0.553549
1531.2	0.554935
1540.85	0.555982
1550.49	0.557305
1560.13	0.559768
1569.77	0.562657
1579.41	0.564742
1589.06	0.567777
1598.7	0.571055
1608.34	0.575416
1617.98	0.579729
1627.63	0.578536
1637.27	0.579109
1646.91	0.580684
1656.55	0.582164
1666.19	0.584271
1675.84	0.586895
1685.48	0.589692
1695.12	0.590956
1704.77	0.592416
1714.41	0.594172
1724.05	0.595894
1733.69	0.596859
1743.33	0.596872
1752.98	0.597243
1762.62	0.598729
1772.26	0.599684
1781.9	0.601461
1791.55	0.603312
1801.19	0.604092
1810.83	0.60581
1820.47	0.606568
1830.12	0.608048
1839.76	0.609472
1849.4	0.610515
1859.04	0.613148
1868.68	0.614422
1878.33	0.61571
1887.97	0.617376
1897.61	0.619027
1907.25	0.621033
1916.9	0.622879
1926.54	0.624369
1936.18	0.626685
1945.82	0.627616
1955.46	0.629544
1965.11	0.632531
1974.75	0.632051
1984.39	0.634484
1994.04	0.636457
2003.68	0.638038
2013.32	0.640846
2022.96	0.63955
2032.6	0.646019
2042.25	0.64509
2051.89	0.646636
2061.53	0.647118
2071.17	0.651045
2080.82	0.652438
2090.46	0.652636
2100.1	0.656859
2109.74	0.657902
2119.39	0.658363
2129.03	0.663654
2138.67	0.663091
2148.31	0.664382
2157.95	0.667794
2167.6	0.6667
2177.24	0.669415
2186.88	0.669272
2196.52	0.673758
2206.17	0.672358
2215.81	0.673775
2225.45	0.675389
2235.09	0.67712
2244.74	0.678451
2254.38	0.68075
2264.02	0.681322
2273.66	0.685255
2283.3	0.684326
2292.95	0.685473
2302.59	0.687459
2312.23	0.686663
2321.87	0.689019
2331.52	0.689753
2341.16	0.691078
2350.8	0.6939
2360.44	0.693637
2370.09	0.696729
2379.73	0.698882
2389.37	0.700318
2399.01	0.700983
2408.66	0.702361
2418.3	0.703995
2427.94	0.7058
2437.58	0.706329
2447.22	0.706091
2456.87	0.707838
2466.51	0.710799
2476.15	0.711124
2485.79	0.713032
2495.44	0.713683
2505.08	0.716154
2514.72	0.717602
2524.36	0.718966
2534.01	0.719436
2543.65	0.721496
2553.29	0.722325
2562.93	0.724001
2572.57	0.725736
2582.22	0.727316
2591.86	0.728747
2601.5	0.730733
2611.14	0.732622
2620.79	0.732781
2630.43	0.735494
2640.07	0.737383
2649.71	0.739151
2659.36	0.740345
2669	0.742302
2678.64	0.743273
2688.28	0.744224
2697.93	0.745434
2707.57	0.7472
2717.21	0.749153
2726.85	0.750128
2736.49	0.751019
2746.14	0.75235
2755.78	0.753487
2765.42	0.75454
2775.06	0.756393
2784.71	0.757983
2794.35	0.759429
2803.99	0.760841
2813.63	0.76298
2823.28	0.765625
2832.92	0.768694
2842.56	0.773229
2852.2	0.774294
2861.84	0.774432
2871.49	0.7747
2881.13	0.776153
2890.77	0.778169
2900.41	0.782208
2910.06	0.786116
2919.7	0.786933
2929.34	0.784462
2938.98	0.781585
2948.62	0.781949
2958.27	0.782573
2967.91	0.779587
2977.55	0.778892
2987.2	0.778752
2996.84	0.779734
3006.48	0.78132
3016.12	0.781625
3025.76	0.784904
3035.41	0.784482
3045.05	0.787129
3054.69	0.788061
3064.33	0.788526
3073.98	0.79083
3083.62	0.792163
3093.26	0.792471
3102.9	0.794207
3112.55	0.795436
3122.19	0.796262
3131.83	0.798428
3141.47	0.799015
3151.11	0.800303
3160.76	0.802374
3170.4	0.803593
3180.04	0.804226
3189.68	0.805464
3199.33	0.806786
3208.97	0.808325
3218.61	0.81013
3228.25	0.811139
3237.9	0.812276
3247.54	0.812996
3257.18	0.814833
3266.82	0.81579
3276.47	0.817545
3286.11	0.818647
3295.75	0.819748
3305.39	0.821395
3315.03	0.822633
3324.68	0.824094
3334.32	0.825154
3343.96	0.826856
3353.6	0.827551
3363.25	0.828216
3372.89	0.82933
3382.53	0.831255
3392.17	0.832587
3401.82	0.833584
3411.46	0.833943
3421.1	0.835859
3430.74	0.837048
3440.39	0.837638
3450.03	0.840293
3459.67	0.840243
3469.31	0.841417
3478.95	0.8427
3488.6	0.843843
3498.24	0.845293
3507.88	0.846517
3517.52	0.848028
3527.17	0.850442
3536.81	0.851489
3546.45	0.85331
3556.09	0.854732
3565.74	0.85426
3575.38	0.854524
3585.02	0.854767
3594.66	0.856743
3604.3	0.858099
3613.95	0.858143
3623.59	0.858258
3633.23	0.85978
3642.87	0.857757
3652.52	0.858465
3662.16	0.859365
3671.8	0.861096
3681.44	0.861483
3691.09	0.862513
3700.73	0.864321
3710.37	0.865024
3720.01	0.867074
3729.66	0.868994
3739.3	0.869038
3748.94	0.871556
3758.58	0.871433
3768.22	0.873665
3777.87	0.874376
3787.51	0.876977
3797.15	0.878312
3806.79	0.880588
3816.44	0.880492
3826.08	0.881336
3835.72	0.88469
3845.36	0.884412
3855.01	0.886695
3864.65	0.887331
3874.29	0.888684
3883.93	0.890185
3893.57	0.891548
3903.22	0.891854
3912.86	0.895171
3922.5	0.89514
3932.14	0.896896
3941.79	0.89711
3951.43	0.89821
3961.07	0.900537
3970.71	0.901431
3980.36	0.902586
3990	0.905491
3999.64	0.905585
