Measurement: Infrared, Infrared Data Processed
Mineral: Monazite-(Ce)
Rruff sample: R040106
Ideal chemistry: CePO_4_
Locality: Angola
Source: University of Arizona Mineral Museum
Description: Brown massive fragment
Measured chemistry: (Ce_0.41_La_0.17_Nd_0.17_Th_0.14_Ca_0.06_Y_0.04_)(P_0.95_Si_0.05_)O_4_
x	intensity
399.193	0
408.835	0.0345898
418.477	0.0371561
428.12	0.0443125
437.762	0.0517931
447.404	0.0635509
457.047	0.0780019
466.689	0.0907235
476.331	0.10094
485.974	0.105238
495.616	0.113418
505.258	0.128758
514.901	0.153594
524.543	0.190258
534.185	0.210534
543.828	0.179555
553.47	0.156454
563.112	0.153447
572.755	0.133501
582.397	0.127284
592.039	0.107465
601.682	0.0984574
611.324	0.125423
620.966	0.127443
630.609	0.105174
640.251	0.075525
649.893	0.0475319
659.536	0.0304289
669.178	0.0254819
678.82	0.0251522
688.463	0.0257431
698.105	0.0273416
707.747	0.0286058
717.39	0.0303231
727.032	0.0328037
736.674	0.0357066
746.317	0.0398654
755.959	0.0440731
765.601	0.0498987
775.244	0.0558655
784.886	0.0626668
794.528	0.070503
804.171	0.0800708
813.813	0.0911771
823.455	0.102874
833.098	0.114757
842.74	0.126283
852.382	0.136522
862.025	0.146812
871.667	0.159591
881.309	0.17405
890.952	0.189703
900.594	0.208426
910.236	0.22624
919.879	0.23963
929.521	0.249989
939.163	0.257316
948.806	0.255428
958.448	0.245931
968.09	0.251544
977.733	0.273129
987.375	0.28373
997.017	0.278248
1006.66	0.268621
1016.3	0.260779
1025.94	0.254812
1035.59	0.248142
1045.23	0.237875
1054.87	0.224695
1064.51	0.212008
1074.16	0.201115
1083.8	0.191552
1093.44	0.181635
1103.08	0.160359
1112.72	0.134535
1122.37	0.112998
1132.01	0.0956679
1141.65	0.0794123
1151.3	0.0632315
1160.94	0.048292
1170.58	0.0366377
1180.22	0.0286932
1189.86	0.0237707
1199.51	0.0193776
1209.15	0.0159597
1218.79	0.0131175
1228.43	0.0108303
1238.08	0.00935607
1247.72	0.00827892
1257.36	0.00687672
1267	0.00611013
1276.64	0.00578498
1286.29	0.00548617
1295.93	0.00544558
1305.57	0.00528604
1315.21	0.00535316
1324.86	0.00564282
1334.5	0.00594522
1344.14	0.00657321
1353.78	0.00673534
1363.43	0.00674148
1373.07	0.00702102
1382.71	0.00729102
1392.35	0.00768009
1401.99	0.00791699
1411.64	0.00859448
1421.28	0.00889286
1430.92	0.0089232
1440.57	0.00925745
1450.21	0.00944822
1459.85	0.00969249
1469.49	0.00961095
1479.13	0.0101733
1488.78	0.00978936
1498.42	0.0101332
1508.06	0.0103875
1517.7	0.0109021
1527.35	0.0114694
1536.99	0.0119401
1546.63	0.0125969
1556.27	0.0128859
1565.91	0.0130257
1575.56	0.0134121
1585.2	0.0139099
1594.84	0.0136324
1604.48	0.013816
1614.13	0.0137888
1623.77	0.0135998
1633.41	0.014128
1643.05	0.0139491
1652.7	0.0139417
1662.34	0.0140392
1671.98	0.014095
1681.62	0.0139165
1691.27	0.0138818
1700.91	0.0136208
1710.55	0.0139657
1720.19	0.0141231
1729.84	0.0143171
1739.48	0.0142638
1749.12	0.0143626
1758.76	0.0146649
1768.4	0.0146723
1778.05	0.0148488
1787.69	0.0150816
1797.33	0.0149207
1806.97	0.0156212
1816.62	0.015149
1826.26	0.0153692
1835.9	0.0152599
1845.54	0.0155821
1855.18	0.0159883
1864.83	0.0158426
1874.47	0.0158138
1884.11	0.0160954
1893.75	0.0158805
1903.4	0.0155801
1913.04	0.0160615
1922.68	0.0165823
1932.32	0.0156211
1941.97	0.0160472
1951.61	0.0138088
1961.25	0.0126161
1970.89	0.0105329
1980.54	0.0139066
1990.18	0.0157105
1999.82	0.0128864
2009.46	0.013933
2019.11	0.0132791
2028.75	0.0127034
2038.39	0.0145778
2048.03	0.017853
2057.67	0.0171835
2067.32	0.0184238
2076.96	0.0194243
2086.6	0.0183624
2096.24	0.0189965
2105.89	0.0200319
2115.53	0.0195202
2125.17	0.0185582
2134.81	0.0144889
2144.45	0.0123876
2154.1	0.0116106
2163.74	0.015455
2173.38	0.0141252
2183.02	0.0158239
2192.67	0.0185409
2202.31	0.0191247
2211.95	0.0196862
2221.59	0.0199238
2231.24	0.0218692
2240.88	0.0221338
2250.52	0.022687
2260.16	0.023815
2269.8	0.0228232
2279.45	0.024798
2289.09	0.0272494
2298.73	0.0272489
2308.38	0.0273326
2318.02	0.0285611
2327.66	0.0269474
2337.3	0.0271984
2346.94	0.0283378
2356.59	0.028043
2366.23	0.0270829
2375.87	0.0272131
2385.51	0.0272494
2395.16	0.0285789
2404.8	0.028038
2414.44	0.0290417
2424.08	0.0280684
2433.72	0.0288006
2443.37	0.028247
2453.01	0.028752
2462.65	0.0297206
2472.29	0.0290768
2481.94	0.0293934
2491.58	0.0296161
2501.22	0.029546
2510.86	0.0298421
2520.51	0.0298368
2530.15	0.0301457
2539.79	0.0307639
2549.43	0.0310465
2559.07	0.0316339
2568.72	0.0318581
2578.36	0.0318859
2588	0.0313996
2597.64	0.0317773
2607.29	0.0328296
2616.93	0.0326772
2626.57	0.0329557
2636.21	0.033131
2645.86	0.0345038
2655.5	0.0332127
2665.14	0.0331401
2674.78	0.0333665
2684.43	0.0338962
2694.07	0.0330204
2703.71	0.0336826
2713.35	0.0335177
2722.99	0.0335685
2732.64	0.033937
2742.28	0.0337144
2751.92	0.0348417
2761.56	0.0354471
2771.21	0.0351676
2780.85	0.0348641
2790.49	0.0345818
2800.13	0.0355295
2809.78	0.0352735
2819.42	0.0355142
2829.06	0.035627
2838.7	0.0354841
2848.34	0.0359392
2857.99	0.0367246
2867.63	0.0359459
2877.27	0.0366472
2886.91	0.036829
2896.56	0.0360441
2906.2	0.036979
2915.84	0.0365271
2925.48	0.0357033
2935.13	0.0374892
2944.77	0.0368333
2954.41	0.0380165
2964.05	0.0377681
2973.7	0.0380935
2983.34	0.0385833
2992.98	0.0388679
3002.62	0.0388089
3012.26	0.0381618
3021.91	0.0392093
3031.55	0.0391298
3041.19	0.0393245
3050.83	0.0398922
3060.48	0.0408639
3070.12	0.0384629
3079.76	0.0406759
3089.4	0.0404831
3099.05	0.0409708
3108.69	0.0404903
3118.33	0.0403401
3127.97	0.0414231
3137.61	0.0425768
3147.26	0.041947
3156.9	0.0420324
3166.54	0.0411401
3176.18	0.0422291
3185.83	0.0418579
3195.47	0.0423234
3205.11	0.0424916
3214.75	0.0415174
3224.4	0.0406323
3234.04	0.0422588
3243.68	0.0421259
3253.32	0.0427044
3262.97	0.0431745
3272.61	0.0436088
3282.25	0.043749
3291.89	0.0433956
3301.53	0.0425539
3311.18	0.0431512
3320.82	0.0436379
3330.46	0.0436015
3340.1	0.0438113
3349.75	0.0455339
3359.39	0.0443217
3369.03	0.0456236
3378.67	0.0457808
3388.32	0.0450131
3397.96	0.0433684
3407.6	0.0446281
3417.24	0.0446295
3426.89	0.044092
3436.53	0.0437541
3446.17	0.044527
3455.81	0.0448119
3465.45	0.0453233
3475.1	0.0455915
3484.74	0.044532
3494.38	0.0442749
3504.02	0.0446027
3513.67	0.0464537
3523.31	0.045324
3532.95	0.0457254
3542.59	0.0459616
3552.24	0.0442929
3561.88	0.0456232
3571.52	0.0446255
3581.16	0.0445556
3590.8	0.0450036
3600.45	0.0449599
3610.09	0.0438435
3619.73	0.0459373
3629.37	0.0452514
3639.02	0.0461165
3648.66	0.0449268
3658.3	0.0454256
3667.94	0.046352
3677.59	0.044239
3687.23	0.0461041
3696.87	0.0474722
3706.51	0.0436184
3716.16	0.0468306
3725.8	0.0471782
3735.44	0.04612
3745.08	0.0472382
3754.72	0.0471129
3764.37	0.0459541
3774.01	0.0490139
3783.65	0.0471134
3793.29	0.0469492
3802.94	0.0495935
3812.58	0.0471479
3822.22	0.047413
3831.86	0.0459454
3841.51	0.0465631
3851.15	0.0486551
3860.79	0.0492072
3870.43	0.047936
3880.07	0.0472762
3889.72	0.0502044
3899.36	0.0481478
3909	0.04856
3918.64	0.0471288
3928.29	0.049873
3937.93	0.0472128
3947.57	0.049903
3957.21	0.0514715
3966.86	0.0499486
3976.5	0.0515572
3986.14	0.0494088
3995.78	0.0521908
