Measurement: Infrared, Infrared Data Processed
Mineral: Montebrasite
Rruff sample: R040062
Ideal chemistry: LiAlPO_4_(OH)
Locality: Hebron, Maine, USA
Source: University of Arizona Mineral Museum
Description: White massive
Measured chemistry: LiAl(PO_4_)((OH)_0.62_F_0.38_)
x	intensity
399.192	0
408.839	0.187881
418.487	0.178095
428.134	0.150504
437.782	0.152073
447.429	0.172487
457.077	0.19221
466.724	0.198243
476.372	0.189242
486.019	0.173446
495.667	0.15652
505.314	0.138991
514.962	0.12307
524.609	0.126418
534.257	0.131297
543.904	0.117968
553.552	0.102887
563.199	0.092762
572.847	0.0930128
582.494	0.117891
592.142	0.128178
601.789	0.110139
611.437	0.100535
621.084	0.0979919
630.732	0.0956574
640.379	0.0831385
650.027	0.0693054
659.674	0.0590067
669.322	0.0441856
678.969	0.0294094
688.617	0.0209475
698.264	0.0172672
707.912	0.0153885
717.559	0.0149775
727.207	0.014822
736.854	0.0156765
746.502	0.0171595
756.149	0.0196352
765.797	0.024972
775.444	0.0339174
785.092	0.0497513
794.739	0.0717258
804.387	0.0907402
814.034	0.0942011
823.682	0.0787191
833.329	0.0498266
842.977	0.0268059
852.624	0.0189133
862.272	0.0171089
871.919	0.0178766
881.567	0.0195017
891.214	0.0211325
900.862	0.0237198
910.509	0.0266876
920.157	0.030673
929.804	0.036273
939.452	0.0439482
949.099	0.0547132
958.747	0.069684
968.394	0.089509
978.042	0.117418
987.689	0.15211
997.337	0.192107
1006.98	0.223727
1016.63	0.232628
1026.28	0.201281
1035.93	0.176269
1045.57	0.208269
1055.22	0.267448
1064.87	0.300875
1074.52	0.297306
1084.16	0.274907
1093.81	0.244562
1103.46	0.208008
1113.11	0.173581
1122.75	0.147367
1132.4	0.121664
1142.05	0.0985975
1151.7	0.0835743
1161.34	0.0720053
1170.99	0.0639267
1180.64	0.061347
1190.29	0.0567169
1199.93	0.0435696
1209.58	0.0270023
1219.23	0.0149555
1228.88	0.00829697
1238.52	0.00590897
1248.17	0.00419903
1257.82	0.0026865
1267.47	0.00181961
1277.12	0.00211525
1286.76	0.00162792
1296.41	0.00158024
1306.06	0.00113392
1315.7	0.00173759
1325.35	0.000957489
1335	0.00102425
1344.65	0.000793457
1354.29	0.000767708
1363.94	0.000804901
1373.59	0.0012207
1383.24	0.00130558
1392.88	0.00136662
1402.53	0.00154591
1412.18	0.00226498
1421.83	0.00251865
1431.47	0.00311756
1441.12	0.00346088
1450.77	0.00354672
1460.42	0.00380516
1470.07	0.00376511
1479.71	0.00300026
1489.36	0.0027256
1499.01	0.00264835
1508.65	0.00197411
1518.3	0.00149441
1527.95	0.00207424
1537.6	0.00168037
1547.24	0.00214577
1556.89	0.00241756
1566.54	0.00311184
1576.19	0.0027523
1585.84	0.00390148
1595.48	0.00412464
1605.13	0.00428963
1614.78	0.00390053
1624.42	0.00355244
1634.07	0.00306988
1643.72	0.0031538
1653.37	0.0019865
1663.02	0.00274467
1672.66	0.00273418
1682.31	0.0027523
1691.96	0.00293827
1701.61	0.00260639
1711.25	0.00305367
1720.9	0.00283909
1730.55	0.00233269
1740.19	0.00168705
1749.84	0.00192642
1759.49	0.00178719
1769.14	0.00177002
1778.79	0.00195599
1788.43	0.00159454
1798.08	0.0013361
1807.73	0.0012188
1817.38	0.00104332
1827.02	0.00117588
1836.67	0.000589371
1846.32	0.000297546
1855.96	0.000693321
1865.61	0.000432968
1875.26	0.00139713
1884.91	-4.95911e-05
1894.56	-0.00104237
1904.2	-0.000392914
1913.85	-0.000639915
1923.5	-0.00201988
1933.14	-0.00283432
1942.79	-0.00348568
1952.44	-0.00554371
1962.09	-0.00541305
1971.73	-0.00670528
1981.38	-0.00396919
1991.03	-0.00556946
2000.68	-0.0056181
2010.33	-0.00875473
2019.97	-0.00763226
2029.62	-0.00828457
2039.27	-0.00452519
2048.91	-0.0037384
2058.56	-0.00330639
2068.21	-0.00220585
2077.86	-0.000232696
2087.51	-0.00116062
2097.15	-0.00232124
2106.8	-0.00176525
2116.45	-0.00372124
2126.09	-0.00417614
2135.74	-0.00861263
2145.39	-0.00867939
2155.04	-0.015646
2164.68	-0.00777054
2174.33	-0.0094986
2183.98	-0.00924969
2193.63	-0.00419235
2203.28	-0.00529003
2212.92	-0.00492573
2222.57	-0.00139904
2232.22	-0.000639915
2241.86	-0.000385284
2251.51	-0.00164604
2261.16	0.00213242
2270.81	0.00131798
2280.45	0.00300312
2290.1	0.00416184
2299.75	0.00402927
2309.4	0.00393009
2319.05	0.00545216
2328.69	0.00375843
2338.34	0.00286293
2347.99	0.00370693
2357.64	0.00256538
2367.28	0.00271797
2376.93	0.00267982
2386.58	0.0021286
2396.22	0.00333977
2405.87	0.00391197
2415.52	0.00288677
2425.17	0.00380707
2434.82	0.00398922
2444.46	0.00388718
2454.11	0.00314617
2463.76	0.00514889
2473.41	0.00286674
2483.05	0.00513363
2492.7	0.00314713
2502.35	0.00326061
2511.99	0.00408363
2521.64	0.00211906
2531.29	0.00384426
2540.94	0.00412369
2550.59	0.00523472
2560.23	0.00452519
2569.88	0.00596142
2579.53	0.00427628
2589.18	0.00550747
2598.82	0.00399685
2608.47	0.00512028
2618.12	0.00547123
2627.76	0.00465012
2637.41	0.00593472
2647.06	0.00573635
2656.71	0.00550365
2666.36	0.00494289
2676	0.00424862
2685.65	0.00441074
2695.3	0.00423336
2704.95	0.00499248
2714.59	0.00367737
2724.24	0.00413227
2733.89	0.00440502
2743.53	0.00421715
2753.18	0.00488567
2762.83	0.00576401
2772.48	0.00450707
2782.12	0.00483704
2791.77	0.00427914
2801.42	0.00569439
2811.07	0.00366306
2820.72	0.00635624
2830.36	0.00557327
2840.01	0.00579262
2849.66	0.00512314
2859.3	0.00542736
2868.95	0.00576496
2878.6	0.00646114
2888.25	0.00691986
2897.89	0.00632763
2907.54	0.00615597
2917.19	0.00686836
2926.84	0.00723171
2936.49	0.00623417
2946.13	0.00668335
2955.78	0.00535393
2965.43	0.00611305
2975.07	0.00732803
2984.72	0.00679016
2994.37	0.00805187
3004.02	0.00958157
3013.66	0.00775051
3023.31	0.00739765
3032.96	0.00870991
3042.61	0.0086441
3052.26	0.00792408
3061.9	0.00945377
3071.55	0.00863457
3081.2	0.00936985
3090.84	0.00914478
3100.49	0.00914478
3110.14	0.00844192
3119.79	0.00989819
3129.43	0.00785637
3139.08	0.00986671
3148.73	0.00936317
3158.38	0.0109654
3168.03	0.00950718
3177.67	0.00932026
3187.32	0.0109243
3196.97	0.0120382
3206.61	0.0113125
3216.26	0.0115223
3225.91	0.0132885
3235.56	0.0140562
3245.2	0.01196
3254.85	0.0113487
3264.5	0.0152054
3274.15	0.0164337
3283.8	0.0154476
3293.44	0.0156012
3303.09	0.0193253
3312.74	0.0200157
3322.39	0.0276718
3332.03	0.0333862
3341.68	0.0436201
3351.33	0.0549774
3360.97	0.0647821
3370.62	0.0733051
3380.27	0.075489
3389.92	0.0670042
3399.57	0.0475225
3409.21	0.0330095
3418.86	0.0211105
3428.51	0.0151062
3438.16	0.0108175
3447.8	0.00546741
3457.45	0.00570393
3467.1	0.00681686
3476.74	0.00759125
3486.39	0.0053978
3496.04	0.00555325
3505.69	0.00348282
3515.34	0.00461578
3524.98	0.00579262
3534.63	0.00519752
3544.28	0.00667858
3553.93	0.00495434
3563.57	0.00327873
3573.22	0.00466919
3582.87	0.00230598
3592.51	0.00133514
3602.16	0.00197029
3611.81	0.00519085
3621.46	0.000669479
3631.11	0.00314999
3640.75	-0.000839233
3650.4	0.00140095
3660.05	0.00351334
3669.7	0.00173759
3679.34	0.00432301
3688.99	0.00134182
3698.64	-0.000248909
3708.28	0.000356674
3717.93	0.00281048
3727.58	0.0021534
3737.23	-0.00308228
3746.88	0.000299454
3756.52	0.0016222
3766.17	0.000884056
3775.82	0.00239372
3785.47	0.00464439
3795.11	0.001544
3804.76	0.00230312
3814.41	0.00322819
3824.05	0.0039711
3833.7	0.00169373
3843.35	0.00205803
3853	0.00186825
3862.65	0.00192738
3872.29	0.000455856
3881.94	0.00181484
3891.59	0.00416946
3901.24	0.00106811
3910.88	1.90735e-05
3920.53	-0.000222206
3930.18	0.00241852
3939.83	0.000623703
3949.47	0.00330734
3959.12	0.00379372
3968.77	0.00364304
3978.42	0.00563717
3988.06	0.00401688
3997.71	0.00302124
