Measurement: Infrared, Infrared Data Processed
Mineral: Montebrasite
Rruff sample: R040060
Ideal chemistry: LiAlPO_4_(OH)
Locality: Oxford County, Maine, USA
Source: University of Arizona Mineral Museum
Description: White massive
Measured chemistry: LiAl(PO_4_)((OH)_0.79_F_0.21_)
x	intensity
399.193	0
408.835	0.234358
418.477	0.216665
428.12	0.190359
437.762	0.191872
447.404	0.199389
457.047	0.211125
466.689	0.225174
476.331	0.222277
485.974	0.208733
495.616	0.193696
505.258	0.174605
514.901	0.161724
524.543	0.163852
534.185	0.158707
543.828	0.144605
553.47	0.135965
563.112	0.134514
572.755	0.146226
582.397	0.170652
592.039	0.169061
601.682	0.151156
611.324	0.142929
620.966	0.138534
630.609	0.12671
640.251	0.110273
649.893	0.0930025
659.536	0.0833664
669.178	0.0715558
678.82	0.0622888
688.463	0.0530895
698.105	0.0451525
707.747	0.0406445
717.39	0.0391639
727.032	0.0391548
736.674	0.0398523
746.317	0.0401984
755.959	0.0411365
765.601	0.044411
775.244	0.0513698
784.886	0.0645216
794.528	0.0818404
804.171	0.0950601
813.813	0.0942628
823.455	0.0774756
833.098	0.054089
842.74	0.039876
852.382	0.0354129
862.025	0.0354501
871.667	0.0382628
881.309	0.0427629
890.952	0.0487539
900.594	0.0534179
910.236	0.0556381
919.879	0.0569848
929.521	0.0604032
939.163	0.0657434
948.806	0.0753991
958.448	0.0927055
968.09	0.120766
977.733	0.162352
987.375	0.215632
997.017	0.256088
1006.66	0.26536
1016.3	0.268666
1025.94	0.250193
1035.59	0.249547
1045.23	0.291477
1054.87	0.332371
1064.51	0.334696
1074.16	0.311098
1083.8	0.280799
1093.44	0.24244
1103.08	0.200849
1112.72	0.165792
1122.37	0.142749
1132.01	0.123499
1141.65	0.102304
1151.3	0.0838012
1160.94	0.0748387
1170.58	0.0690568
1180.22	0.0614998
1189.86	0.0520729
1199.51	0.0383876
1209.15	0.0246792
1218.79	0.0152842
1228.43	0.0102411
1238.08	0.00842486
1247.72	0.00701684
1257.36	0.00568579
1267	0.00503156
1276.64	0.00559559
1286.29	0.00501348
1295.93	0.00504173
1305.57	0.00467503
1315.21	0.00530825
1324.86	0.00482957
1334.5	0.00497179
1344.14	0.004772
1353.78	0.00494505
1363.43	0.0049258
1373.07	0.00541674
1382.71	0.00547043
1392.35	0.00573698
1401.99	0.00603594
1411.64	0.00616719
1421.28	0.0062143
1430.92	0.00657349
1440.57	0.00673483
1450.21	0.00711684
1459.85	0.00746572
1469.49	0.0079479
1479.13	0.00751526
1488.78	0.00756938
1498.42	0.00784739
1508.06	0.00736936
1517.7	0.00783846
1527.35	0.00911009
1536.99	0.00943934
1546.63	0.010065
1556.27	0.0106909
1565.91	0.0118472
1575.56	0.0120764
1585.2	0.0136792
1594.84	0.0139997
1604.48	0.0144076
1614.13	0.0147793
1623.77	0.0152822
1633.41	0.0166672
1643.05	0.0170142
1652.7	0.0158579
1662.34	0.0163048
1671.98	0.0149286
1681.62	0.0122371
1691.27	0.0105713
1700.91	0.00816072
1710.55	0.00900288
1720.19	0.00837006
1729.84	0.0072936
1739.48	0.00700064
1749.12	0.00659599
1758.76	0.00648089
1768.4	0.00607437
1778.05	0.00613187
1787.69	0.0060649
1797.33	0.00574906
1806.97	0.0054713
1816.62	0.00555099
1826.26	0.00546032
1835.9	0.00517105
1845.54	0.0054815
1855.18	0.00577301
1864.83	0.00496472
1874.47	0.00583928
1884.11	0.00479364
1893.75	0.00406148
1903.4	0.00434776
1913.04	0.00481107
1922.68	0.00418949
1932.32	0.00239413
1941.97	0.001758
1951.61	0.000562929
1961.25	0.00117835
1970.89	0.000455266
1980.54	0.00134389
1990.18	0.0011117
1999.82	-0.00084618
2009.46	-0.00112204
2019.11	-0.00063248
2028.75	-0.00115624
2038.39	0.00267879
2048.03	0.00351936
2057.67	0.00332663
2067.32	0.00295797
2076.96	0.00488269
2086.6	0.00371316
2096.24	0.00335098
2105.89	0.00404433
2115.53	0.00203937
2125.17	0.00193943
2134.81	-0.000940643
2144.45	-0.00183557
2154.1	-0.0070051
2163.74	0.00131903
2173.38	0.000136687
2183.02	-0.000740057
2192.67	0.00468429
2202.31	0.00363851
2211.95	0.00383031
2221.59	0.00582594
2231.24	0.00735191
2240.88	0.00750514
2250.52	0.0066684
2260.16	0.00926279
2269.8	0.00849533
2279.45	0.0106541
2289.09	0.0114666
2298.73	0.0117426
2308.38	0.0115687
2318.02	0.0129951
2327.66	0.0118334
2337.3	0.011236
2346.94	0.0118473
2356.59	0.011452
2366.23	0.0108983
2375.87	0.0115704
2385.51	0.0111435
2395.16	0.011035
2404.8	0.0131763
2414.44	0.0123112
2424.08	0.0126801
2433.72	0.0121199
2443.37	0.01268
2453.01	0.0128683
2462.65	0.0148111
2472.29	0.0124186
2481.94	0.0138503
2491.58	0.0129201
2501.22	0.0127449
2510.86	0.013627
2520.51	0.012372
2530.15	0.0130476
2539.79	0.0141207
2549.43	0.0146191
2559.07	0.0139639
2568.72	0.0158272
2578.36	0.0142865
2588	0.0156129
2597.64	0.0143214
2607.29	0.0153564
2616.93	0.0163411
2626.57	0.0164422
2636.21	0.0170588
2645.86	0.0164219
2655.5	0.0176491
2665.14	0.0164
2674.78	0.0162127
2684.43	0.0164878
2694.07	0.0170507
2703.71	0.017923
2713.35	0.0172635
2722.99	0.0179143
2732.64	0.0186551
2742.28	0.0182099
2751.92	0.019742
2761.56	0.0206037
2771.21	0.0206249
2780.85	0.0210415
2790.49	0.0213879
2800.13	0.0230166
2809.78	0.0221307
2819.42	0.0243798
2829.06	0.0242012
2838.7	0.0244394
2848.34	0.0247448
2857.99	0.0254891
2867.63	0.0264746
2877.27	0.0277677
2886.91	0.0281075
2896.56	0.0292924
2906.2	0.029438
2915.84	0.0295574
2925.48	0.0309242
2935.13	0.029919
2944.77	0.0300256
2954.41	0.0282772
2964.05	0.0301175
2973.7	0.031526
2983.34	0.0311185
2992.98	0.0323927
3002.62	0.033572
3012.26	0.032023
3021.91	0.0325743
3031.55	0.0342106
3041.19	0.0337903
3050.83	0.0342324
3060.48	0.0361327
3070.12	0.0355674
3079.76	0.0359368
3089.4	0.0367026
3099.05	0.0364817
3108.69	0.0369673
3118.33	0.0366732
3127.97	0.0358172
3137.61	0.0374178
3147.26	0.0352634
3156.9	0.0360605
3166.54	0.0367796
3176.18	0.0363818
3185.83	0.0357715
3195.47	0.0386629
3205.11	0.0362085
3214.75	0.03664
3224.4	0.0377869
3234.04	0.0404738
3243.68	0.0377639
3253.32	0.0400154
3262.97	0.0426235
3272.61	0.044247
3282.25	0.0421141
3291.89	0.0422235
3301.53	0.0444058
3311.18	0.0420651
3320.82	0.0468646
3330.46	0.0493649
3340.1	0.0559867
3349.75	0.0628039
3359.39	0.0700141
3369.03	0.0791641
3378.67	0.0844135
3388.32	0.0838457
3397.96	0.0639972
3407.6	0.0455236
3417.24	0.0349377
3426.89	0.0308639
3436.53	0.0296285
3446.17	0.0253129
3455.81	0.0256069
3465.45	0.0244585
3475.1	0.0254077
3484.74	0.0243165
3494.38	0.0249554
3504.02	0.0229506
3513.67	0.0267369
3523.31	0.0271603
3532.95	0.0319761
3542.59	0.0490705
3552.24	0.0332592
3561.88	0.0207876
3571.52	0.022171
3581.16	0.0214735
3590.8	0.0202885
3600.45	0.0213201
3610.09	0.0308008
3619.73	0.0233401
3629.37	0.0178904
3639.02	0.0118081
3648.66	0.013706
3658.3	0.0141371
3667.94	0.00939736
3677.59	0.0119728
3687.23	0.00927863
3696.87	0.0111147
3706.51	0.0100661
3716.16	0.0128258
3725.8	0.0117279
3735.44	0.00629167
3745.08	0.0107276
3754.72	0.0118624
3764.37	0.00931582
3774.01	0.0124999
3783.65	0.0122889
3793.29	0.0113535
3802.94	0.0116899
3812.58	0.0135145
3822.22	0.0131479
3831.86	0.0102997
3841.51	0.0122858
3851.15	0.0124762
3860.79	0.0109607
3870.43	0.0124498
3880.07	0.0118399
3889.72	0.0115807
3899.36	0.0124944
3909	0.0133588
3918.64	0.0128384
3928.29	0.0119199
3937.93	0.0109972
3947.57	0.0140669
3957.21	0.0147516
3966.86	0.0127878
3976.5	0.013606
3986.14	0.016042
3995.78	0.013782
