Measurement: Infrared, Infrared Data Processed
Mineral: Mottramite
Rruff sample: R050517
Ideal chemistry: Pb^2+^Cu^2+^V^5+^O_4_(OH)
Locality: Tsumeb mine, Tsumeb, Otavi District, Oshikoto, Namibia
Source: University of Arizona Mineral Museum
Description: Coating of green prismatic crystals
Measured chemistry: Pb_1.00_Cu_1.00_((V_0.88_As_0.12_)_Î£=1_O_4_)(OH)
x	intensity
399.193	0.169553
408.835	0.176605
418.477	0.145596
428.12	0.114113
437.762	0.111771
447.404	0.124135
457.047	0.13184
466.689	0.14942
476.331	0.188108
485.974	0.220092
495.616	0.163866
505.258	0.109212
514.901	0.100519
524.543	0.113751
534.185	0.131211
543.828	0.145272
553.47	0.161418
563.112	0.175238
572.755	0.190338
582.397	0.205271
592.039	0.220723
601.682	0.23575
611.324	0.250072
620.966	0.265155
630.609	0.281838
640.251	0.29761
649.893	0.312309
659.536	0.3247
669.178	0.331739
678.82	0.330691
688.463	0.325757
698.105	0.316653
707.747	0.300995
717.39	0.28056
727.032	0.26184
736.674	0.246149
746.317	0.223208
755.959	0.191037
765.601	0.160648
775.244	0.130417
784.886	0.127919
794.528	0.155664
804.171	0.197151
813.813	0.211634
823.455	0.180717
833.098	0.163984
842.74	0.192955
852.382	0.15512
862.025	0.1158
871.667	0.0725807
881.309	0.0378477
890.952	0.0259992
900.594	0.0233025
910.236	0.0251851
919.879	0.0332793
929.521	0.0542189
939.163	0.0661907
948.806	0.0472749
958.448	0.0323221
968.09	0.0387843
977.733	0.0559412
987.375	0.0953726
997.017	0.102902
1006.66	0.0451093
1016.3	0.029282
1025.94	0.0238843
1035.59	0.0222408
1045.23	0.0213987
1054.87	0.0212206
1064.51	0.0224153
1074.16	0.0227722
1083.8	0.0234499
1093.44	0.0244224
1103.08	0.0250485
1112.72	0.0256603
1122.37	0.0257463
1132.01	0.0261974
1141.65	0.0270136
1151.3	0.0277277
1160.94	0.0285629
1170.58	0.0297278
1180.22	0.0306205
1189.86	0.0319262
1199.51	0.0328747
1209.15	0.0341666
1218.79	0.0351541
1228.43	0.0364664
1238.08	0.0376814
1247.72	0.0390445
1257.36	0.0404997
1267	0.0424178
1276.64	0.0444981
1286.29	0.0453597
1295.93	0.0469729
1305.57	0.0486637
1315.21	0.0503498
1324.86	0.0521775
1334.5	0.0539337
1344.14	0.0558556
1353.78	0.0577379
1363.43	0.0600671
1373.07	0.06284
1382.71	0.065094
1392.35	0.067691
1401.99	0.0698314
1411.64	0.0716575
1421.28	0.0735152
1430.92	0.0747138
1440.57	0.0750483
1450.21	0.0750587
1459.85	0.0750439
1469.49	0.0743805
1479.13	0.0745236
1488.78	0.0745174
1498.42	0.0745388
1508.06	0.0751359
1517.7	0.0754131
1527.35	0.07607
1536.99	0.077303
1546.63	0.0780664
1556.27	0.079366
1565.91	0.0798843
1575.56	0.0812608
1585.2	0.0819887
1594.84	0.0832908
1604.48	0.0845053
1614.13	0.0859516
1623.77	0.0876992
1633.41	0.088308
1643.05	0.0889996
1652.7	0.0914879
1662.34	0.0916921
1671.98	0.0923314
1681.62	0.0934988
1691.27	0.0943674
1700.91	0.0960305
1710.55	0.0960861
1720.19	0.0980226
1729.84	0.0994133
1739.48	0.100004
1749.12	0.101716
1758.76	0.104162
1768.4	0.105675
1778.05	0.106993
1787.69	0.109327
1797.33	0.112049
1806.97	0.114299
1816.62	0.116535
1826.26	0.11688
1835.9	0.112556
1845.54	0.108999
1855.18	0.107633
1864.83	0.108163
1874.47	0.108664
1884.11	0.109458
1893.75	0.110337
1903.4	0.111074
1913.04	0.112069
1922.68	0.114283
1932.32	0.116177
1941.97	0.117062
1951.61	0.116023
1961.25	0.112352
1970.89	0.109602
1980.54	0.110804
1990.18	0.109059
1999.82	0.110899
2009.46	0.112193
2019.11	0.11401
2028.75	0.115144
2038.39	0.116741
2048.03	0.116095
2057.67	0.11729
2067.32	0.118515
2076.96	0.118953
2086.6	0.11931
2096.24	0.119359
2105.89	0.120895
2115.53	0.121651
2125.17	0.121332
2134.81	0.121819
2144.45	0.122017
2154.1	0.121421
2163.74	0.125325
2173.38	0.125518
2183.02	0.126005
2192.67	0.128645
2202.31	0.129337
2211.95	0.12966
2221.59	0.129453
2231.24	0.131398
2240.88	0.131827
2250.52	0.132168
2260.16	0.132176
2269.8	0.133806
2279.45	0.134176
2289.09	0.135291
2298.73	0.135877
2308.38	0.135913
2318.02	0.136831
2327.66	0.137928
2337.3	0.138627
2346.94	0.138658
2356.59	0.139724
2366.23	0.140876
2375.87	0.140432
2385.51	0.140552
2395.16	0.141069
2404.8	0.141396
2414.44	0.142587
2424.08	0.143616
2433.72	0.14379
2443.37	0.144511
2453.01	0.14571
2462.65	0.14632
2472.29	0.146785
2481.94	0.147832
2491.58	0.148249
2501.22	0.149533
2510.86	0.150119
2520.51	0.151132
2530.15	0.152195
2539.79	0.152444
2549.43	0.153665
2559.07	0.154787
2568.72	0.155336
2578.36	0.15635
2588	0.157092
2597.64	0.158329
2607.29	0.15931
2616.93	0.160017
2626.57	0.160357
2636.21	0.16167
2645.86	0.162315
2655.5	0.163028
2665.14	0.164086
2674.78	0.164766
2684.43	0.165579
2694.07	0.166265
2703.71	0.167371
2713.35	0.16811
2722.99	0.168783
2732.64	0.170227
2742.28	0.171179
2751.92	0.172588
2761.56	0.173567
2771.21	0.175303
2780.85	0.175898
2790.49	0.17772
2800.13	0.178431
2809.78	0.179745
2819.42	0.181197
2829.06	0.183324
2838.7	0.184243
2848.34	0.183715
2857.99	0.18528
2867.63	0.187448
2877.27	0.189721
2886.91	0.191447
2896.56	0.192847
2906.2	0.193895
2915.84	0.193408
2925.48	0.194607
2935.13	0.196667
2944.77	0.199452
2954.41	0.20182
2964.05	0.203179
2973.7	0.204631
2983.34	0.206535
2992.98	0.208267
3002.62	0.210145
3012.26	0.213045
3021.91	0.214862
3031.55	0.216742
3041.19	0.218024
3050.83	0.218589
3060.48	0.219995
3070.12	0.22086
3079.76	0.222626
3089.4	0.224363
3099.05	0.224101
3108.69	0.221377
3118.33	0.21662
3127.97	0.211696
3137.61	0.207991
3147.26	0.203824
3156.9	0.199031
3166.54	0.19392
3176.18	0.188114
3185.83	0.182412
3195.47	0.177183
3205.11	0.173004
3214.75	0.168419
3224.4	0.16305
3234.04	0.160363
3243.68	0.155877
3253.32	0.153507
3262.97	0.15109
3272.61	0.148898
3282.25	0.147348
3291.89	0.146084
3301.53	0.145192
3311.18	0.14487
3320.82	0.144206
3330.46	0.143882
3340.1	0.144824
3349.75	0.144948
3359.39	0.145217
3369.03	0.14559
3378.67	0.146545
3388.32	0.147095
3397.96	0.148172
3407.6	0.148792
3417.24	0.149716
3426.89	0.150089
3436.53	0.151302
3446.17	0.152073
3455.81	0.152542
3465.45	0.153713
3475.1	0.153522
3484.74	0.153624
3494.38	0.154968
3504.02	0.156209
3513.67	0.156042
3523.31	0.157301
3532.95	0.157971
3542.59	0.158066
3552.24	0.159201
3561.88	0.159307
3571.52	0.159908
3581.16	0.160028
3590.8	0.160918
3600.45	0.161684
3610.09	0.162909
3619.73	0.163282
3629.37	0.163667
3639.02	0.164123
3648.66	0.165427
3658.3	0.164808
3667.94	0.165937
3677.59	0.165791
3687.23	0.167591
3696.87	0.166766
3706.51	0.16725
3716.16	0.168445
3725.8	0.168326
3735.44	0.169958
3745.08	0.170939
3754.72	0.16925
3764.37	0.170197
3774.01	0.171413
3783.65	0.17018
3793.29	0.170248
3802.94	0.172239
3812.58	0.171722
3822.22	0.172995
3831.86	0.173476
3841.51	0.172883
3851.15	0.174985
3860.79	0.174565
3870.43	0.17551
3880.07	0.174274
3889.72	0.174656
3899.36	0.175421
3909	0.17497
3918.64	0.175367
3928.29	0.175993
3937.93	0.176469
3947.57	0.177259
3957.21	0.176586
3966.86	0.176745
3976.5	0.177463
3986.14	0.178111
3995.78	0.17804
