Measurement: Infrared, Infrared Data Processed
Mineral: Muscovite
Rruff sample: R040108
Ideal chemistry: KAl_2_(Si_3_Al)O_10_(OH)_2_
Locality: USSR
Source: University of Arizona Mineral Museum
Description: Dark green hexagonal tablet
Measured chemistry: (K_0.96_Na_0.04_)_Σ=1_(Al_1.48_Fe^3+^_0.20_Mg_0.16_Fe^2+^_0.14_Ti_0.02_)_Σ=2_(Si_3.28_Al_0.72_)_Σ=4_O_10_(OH)_2_; OH estimated by charge balance
x	intensity
399.193	0
408.835	0.341021
418.477	0.360382
428.12	0.359595
437.762	0.36551
447.404	0.380563
457.047	0.382238
466.689	0.357225
476.331	0.302471
485.974	0.273189
495.616	0.290105
505.258	0.330361
514.901	0.326706
524.543	0.283548
534.185	0.23922
543.828	0.205131
553.47	0.182345
563.112	0.163527
572.755	0.151282
582.397	0.145189
592.039	0.14525
601.682	0.147643
611.324	0.150532
620.966	0.148242
630.609	0.141206
640.251	0.145647
649.893	0.147445
659.536	0.148787
669.178	0.150074
678.82	0.147963
688.463	0.143996
698.105	0.140715
707.747	0.137966
717.39	0.136057
727.032	0.138185
736.674	0.147491
746.317	0.151398
755.959	0.13762
765.601	0.12465
775.244	0.126942
784.886	0.133807
794.528	0.142639
804.171	0.148996
813.813	0.154986
823.455	0.152182
833.098	0.135504
842.74	0.132154
852.382	0.143333
862.025	0.165063
871.667	0.191104
881.309	0.219788
890.952	0.251236
900.594	0.289176
910.236	0.294529
919.879	0.282208
929.521	0.285352
939.163	0.312341
948.806	0.373784
958.448	0.451822
968.09	0.515209
977.733	0.534334
987.375	0.520568
997.017	0.497542
1006.66	0.455669
1016.3	0.414281
1025.94	0.364961
1035.59	0.283365
1045.23	0.204222
1054.87	0.156944
1064.51	0.149528
1074.16	0.159153
1083.8	0.141742
1093.44	0.112236
1103.08	0.0874974
1112.72	0.0706051
1122.37	0.0558878
1132.01	0.0431255
1141.65	0.0319421
1151.3	0.0246372
1160.94	0.020455
1170.58	0.0174505
1180.22	0.0148337
1189.86	0.0134461
1199.51	0.0117344
1209.15	0.0104779
1218.79	0.00936263
1228.43	0.00852163
1238.08	0.00775464
1247.72	0.00731027
1257.36	0.00705789
1267	0.00680799
1276.64	0.00641461
1286.29	0.0064525
1295.93	0.00647262
1305.57	0.00605485
1315.21	0.00583957
1324.86	0.0059752
1334.5	0.00601552
1344.14	0.00639859
1353.78	0.00632868
1363.43	0.00648728
1373.07	0.00703546
1382.71	0.00672713
1392.35	0.00651041
1401.99	0.00714415
1411.64	0.00753973
1421.28	0.00756435
1430.92	0.00716464
1440.57	0.00712501
1450.21	0.00724576
1459.85	0.00716316
1469.49	0.00606008
1479.13	0.00556454
1488.78	0.00511041
1498.42	0.00514169
1508.06	0.00566475
1517.7	0.00606658
1527.35	0.00655587
1536.99	0.00704487
1546.63	0.00833187
1556.27	0.00909737
1565.91	0.00927347
1575.56	0.00921848
1585.2	0.00866306
1594.84	0.00795462
1604.48	0.00795908
1614.13	0.00788821
1623.77	0.00822148
1633.41	0.00856586
1643.05	0.008793
1652.7	0.00883802
1662.34	0.00838377
1671.98	0.00825449
1681.62	0.00811077
1691.27	0.00787568
1700.91	0.00801015
1710.55	0.00756257
1720.19	0.00889207
1729.84	0.00946599
1739.48	0.00968267
1749.12	0.00890221
1758.76	0.00791865
1768.4	0.00724125
1778.05	0.00702155
1787.69	0.00729554
1797.33	0.00685943
1806.97	0.00695021
1816.62	0.00657196
1826.26	0.00601319
1835.9	0.00589297
1845.54	0.00616321
1855.18	0.00596206
1864.83	0.00560447
1874.47	0.00517443
1884.11	0.00511257
1893.75	0.00452234
1903.4	0.00364517
1913.04	0.00282582
1922.68	0.00342367
1932.32	0.00184815
1941.97	0.00129445
1951.61	-0.000796269
1961.25	-0.00108544
1970.89	-0.00302509
1980.54	-0.00289769
1990.18	0.00099299
1999.82	-0.00255367
2009.46	-0.00350061
2019.11	-0.00248077
2028.75	-0.00333405
2038.39	-0.00135125
2048.03	0.000586333
2057.67	0.00133543
2067.32	0.00375268
2076.96	0.00304666
2086.6	0.00261673
2096.24	0.00426231
2105.89	0.00582619
2115.53	0.00598388
2125.17	0.00422244
2134.81	0.00327188
2144.45	-0.00204399
2154.1	-0.000696684
2163.74	-0.000880449
2173.38	0.000391208
2183.02	0.00537294
2192.67	0.0048512
2202.31	0.00679454
2211.95	0.00651572
2221.59	0.00673619
2231.24	0.00844298
2240.88	0.00788371
2250.52	0.00842773
2260.16	0.00888918
2269.8	0.00921922
2279.45	0.00968675
2289.09	0.0112608
2298.73	0.0110581
2308.38	0.0105057
2318.02	0.0120103
2327.66	0.0111667
2337.3	0.0112096
2346.94	0.0109265
2356.59	0.0109299
2366.23	0.0109972
2375.87	0.0106342
2385.51	0.0107279
2395.16	0.0106887
2404.8	0.0104179
2414.44	0.0114261
2424.08	0.0113948
2433.72	0.0117824
2443.37	0.0113101
2453.01	0.010458
2462.65	0.0119471
2472.29	0.0110332
2481.94	0.0122959
2491.58	0.0119046
2501.22	0.0110487
2510.86	0.0109106
2520.51	0.0122869
2530.15	0.0119585
2539.79	0.0126265
2549.43	0.0123802
2559.07	0.0134446
2568.72	0.0130352
2578.36	0.013261
2588	0.0131961
2597.64	0.0145181
2607.29	0.013827
2616.93	0.0134533
2626.57	0.0142054
2636.21	0.0145062
2645.86	0.0148201
2655.5	0.0137032
2665.14	0.0137077
2674.78	0.0140021
2684.43	0.0144517
2694.07	0.0131403
2703.71	0.014037
2713.35	0.0149454
2722.99	0.0148151
2732.64	0.0145176
2742.28	0.0157686
2751.92	0.014719
2761.56	0.0159698
2771.21	0.0154162
2780.85	0.0152252
2790.49	0.015796
2800.13	0.0146528
2809.78	0.0161965
2819.42	0.0166028
2829.06	0.0157836
2838.7	0.0165936
2848.34	0.0165227
2857.99	0.0175265
2867.63	0.0177715
2877.27	0.0173628
2886.91	0.0175187
2896.56	0.0163152
2906.2	0.0187047
2915.84	0.0183346
2925.48	0.0162172
2935.13	0.0187067
2944.77	0.0193863
2954.41	0.0212736
2964.05	0.0196232
2973.7	0.0184485
2983.34	0.0182247
2992.98	0.0185316
3002.62	0.0186252
3012.26	0.019061
3021.91	0.0205212
3031.55	0.0194535
3041.19	0.0198715
3050.83	0.0224048
3060.48	0.0204249
3070.12	0.0202022
3079.76	0.0209489
3089.4	0.0220599
3099.05	0.0235063
3108.69	0.0225004
3118.33	0.0232253
3127.97	0.0254118
3137.61	0.0248694
3147.26	0.0250501
3156.9	0.0235294
3166.54	0.0247581
3176.18	0.0253848
3185.83	0.0244511
3195.47	0.0250001
3205.11	0.0267448
3214.75	0.0254941
3224.4	0.024837
3234.04	0.025606
3243.68	0.0268788
3253.32	0.027996
3262.97	0.0281061
3272.61	0.0282493
3282.25	0.0282632
3291.89	0.0279671
3301.53	0.0278222
3311.18	0.0292014
3320.82	0.0302653
3330.46	0.0285742
3340.1	0.0299706
3349.75	0.0307307
3359.39	0.0310877
3369.03	0.0319038
3378.67	0.029684
3388.32	0.0312258
3397.96	0.0308495
3407.6	0.0312616
3417.24	0.0311622
3426.89	0.0299894
3436.53	0.030068
3446.17	0.0309477
3455.81	0.0313339
3465.45	0.0293291
3475.1	0.0316757
3484.74	0.0309607
3494.38	0.032233
3504.02	0.0337259
3513.67	0.0350198
3523.31	0.0351476
3532.95	0.0357895
3542.59	0.036867
3552.24	0.0391411
3561.88	0.0474481
3571.52	0.0525963
3581.16	0.064167
3590.8	0.0714682
3600.45	0.0819997
3610.09	0.0856246
3619.73	0.0856804
3629.37	0.0710598
3639.02	0.0573394
3648.66	0.043745
3658.3	0.0363837
3667.94	0.0319089
3677.59	0.0256879
3687.23	0.0245339
3696.87	0.0272364
3706.51	0.0270241
3716.16	0.0226791
3725.8	0.0261773
3735.44	0.0291545
3745.08	0.0253729
3754.72	0.0257722
3764.37	0.026408
3774.01	0.0285964
3783.65	0.026328
3793.29	0.0254122
3802.94	0.0294927
3812.58	0.0262597
3822.22	0.0268036
3831.86	0.0278326
3841.51	0.0273873
3851.15	0.0287251
3860.79	0.0295527
3870.43	0.0287763
3880.07	0.0296217
3889.72	0.027086
3899.36	0.0312298
3909	0.0282439
3918.64	0.0278321
3928.29	0.0295878
3937.93	0.0298081
3947.57	0.0271716
3957.21	0.0302464
3966.86	0.0278226
3976.5	0.0311845
3986.14	0.0275726
3995.78	0.0329335
