Measurement: Infrared, Infrared Data Processed
Mineral: Muscovite
Rruff sample: R050198
Ideal chemistry: KAl_2_(Si_3_Al)O_10_(OH)_2_
Locality: California, USA
Source: University of Arizona Mineral Museum
Description: Micaceous aggregate, polytype 2M1
Measured chemistry: (K_0.92_Na_0.08_)(Al_0.76_Mg_0.18_Fe^3+^_0.04_Fe^2+^_0.02_)_2_(Si_3.40_Al_0.60_)O_10_(OH)_2_
x	intensity
374.123	0.236926
383.765	0.259112
393.407	0.279878
403.05	0.310728
412.692	0.333989
422.334	0.324966
431.976	0.304794
441.619	0.303256
451.261	0.318629
460.904	0.340384
470.546	0.317011
480.188	0.255629
489.83	0.243429
499.473	0.268281
509.115	0.303979
518.758	0.276942
528.4	0.228285
538.042	0.186146
547.684	0.157604
557.327	0.141606
566.969	0.125046
576.611	0.106171
586.254	0.092238
595.896	0.0847427
605.538	0.081547
615.181	0.0813237
624.823	0.0805381
634.466	0.0766491
644.108	0.0711532
653.75	0.0678543
663.393	0.0679328
673.035	0.0688907
682.677	0.0678276
692.319	0.065599
701.962	0.0636557
711.604	0.0624114
721.246	0.0637021
730.889	0.0697669
740.531	0.0799142
750.173	0.0862428
759.816	0.078372
769.458	0.0726363
779.101	0.0768825
788.743	0.0871972
798.385	0.104575
808.028	0.127874
817.67	0.155661
827.312	0.165582
836.955	0.145879
846.597	0.130684
856.239	0.133337
865.881	0.149901
875.524	0.183181
885.166	0.231353
894.808	0.278349
904.451	0.302869
914.093	0.282535
923.736	0.279927
933.378	0.299483
943.02	0.343184
952.663	0.419595
962.305	0.486032
971.947	0.515083
981.59	0.509035
991.232	0.494486
1000.87	0.465849
1010.52	0.415579
1020.16	0.369798
1029.8	0.311576
1039.44	0.241654
1049.09	0.188549
1058.73	0.152459
1068.37	0.1408
1078.01	0.147538
1087.65	0.135842
1097.3	0.107501
1106.94	0.0838875
1116.58	0.0689192
1126.22	0.0552365
1135.87	0.0427063
1145.51	0.0321287
1155.15	0.0252191
1164.79	0.0200723
1174.44	0.0162254
1184.08	0.0130509
1193.72	0.0105454
1203.36	0.00803079
1213.01	0.00639741
1222.65	0.00549977
1232.29	0.00472621
1241.93	0.0042529
1251.58	0.00390876
1261.22	0.00393888
1270.86	0.00440692
1280.5	0.00596778
1290.14	0.00626326
1299.79	0.00459515
1309.43	0.00448581
1319.07	0.00387347
1328.71	0.00374001
1338.36	0.00404978
1348	0.0046115
1357.64	0.00483925
1367.28	0.00476269
1376.92	0.00527234
1386.57	0.00521507
1396.21	0.00516241
1405.85	0.00514231
1415.49	0.00510531
1425.14	0.00513847
1434.78	0.00507135
1444.42	0.00436613
1454.06	0.00403683
1463.71	0.00348698
1473.35	0.00255362
1482.99	0.00178409
1492.63	0.00150976
1502.28	0.00136754
1511.92	0.0015237
1521.56	0.00178378
1531.2	0.00185336
1540.85	0.00275078
1550.49	0.00270962
1560.13	0.00399872
1569.77	0.00381998
1579.41	0.00391205
1589.06	0.00424802
1598.7	0.00459095
1608.34	0.0050425
1617.98	0.0061387
1627.63	0.00656151
1637.27	0.0073816
1646.91	0.00761741
1656.55	0.00687895
1666.19	0.00615988
1675.84	0.00578958
1685.48	0.00548585
1695.12	0.00488019
1704.77	0.00453253
1714.41	0.00446842
1724.05	0.00431542
1733.69	0.00394618
1743.33	0.00108214
1752.98	0.000815165
1762.62	0.000639689
1772.26	0.000872954
1781.9	0.000673861
1791.55	0.000753856
1801.19	0.000123535
1810.83	0.00023262
1820.47	0.000210781
1830.12	-0.000636099
1839.76	-0.000349788
1849.4	-0.000644651
1859.04	-0.00048458
1868.68	-0.000654007
1878.33	-0.00165597
1887.97	-0.00152647
1897.61	-0.00246593
1907.25	-0.00206675
1916.9	-0.00242425
1926.54	-0.00288573
1936.18	-0.00239755
1945.82	-0.00391679
1955.46	-0.00363046
1965.11	-0.00283047
1974.75	-0.00213304
1984.39	-0.0016912
1994.04	-0.00205334
2003.68	-0.00332939
2013.32	-0.00248963
2022.96	-0.000299505
2032.6	0.00145642
2042.25	0.000135571
2051.89	-0.00107015
2061.53	-0.00193719
2071.17	-0.00106026
2080.82	-0.00128226
2090.46	-0.000811331
2100.1	0.000274869
2109.74	0.000900088
2119.39	-1.7277e-05
2129.03	0.000427617
2138.67	0.00169828
2148.31	0.00125162
2157.95	0.00393449
2167.6	0.00422658
2177.24	0.00371617
2186.88	0.00478938
2196.52	0.002951
2206.17	0.00141504
2215.81	0.00176613
2225.45	0.00159839
2235.09	0.00262544
2244.74	0.00243296
2254.38	0.00169582
2264.02	0.00135918
2273.66	0.0021953
2283.3	0.00140844
2292.95	0.000229543
2302.59	-0.000346659
2312.23	-0.00120729
2321.87	-0.000265593
2331.52	-0.00107428
2341.16	-0.00141854
2350.8	-0.00164894
2360.44	-0.0011478
2370.09	-0.00148694
2379.73	-0.00189999
2389.37	-0.00198562
2399.01	-0.00130748
2408.66	-0.00105051
2418.3	-0.00130635
2427.94	-0.0008763
2437.58	-0.00132668
2447.22	-0.00153744
2456.87	-0.00167201
2466.51	-0.00130643
2476.15	-0.00226586
2485.79	-0.00202277
2495.44	-0.00280907
2505.08	-0.00228649
2514.72	-0.00226025
2524.36	-0.00279124
2534.01	-0.00252348
2543.65	-0.00244669
2553.29	-0.00218453
2562.93	-0.0023717
2572.57	-0.00202958
2582.22	-0.00229979
2591.86	-0.00168991
2601.5	-0.00182206
2611.14	-0.00206416
2620.79	-0.00201277
2630.43	-0.00172428
2640.07	-0.0014052
2649.71	-0.00202466
2659.36	-0.00242151
2669	-0.00231442
2678.64	-0.00232774
2688.28	-0.00270136
2697.93	-0.00252143
2707.57	-0.00239489
2717.21	-0.0017931
2726.85	-0.0018506
2736.49	-0.0016489
2746.14	-0.00203856
2755.78	-0.00164639
2765.42	-0.00109172
2775.06	-0.00112497
2784.71	-0.000901962
2794.35	-0.00055843
2803.99	-0.00100251
2813.63	-0.000742831
2823.28	-0.00071725
2832.92	1.53637e-05
2842.56	0.00116684
2852.2	0.00203713
2861.84	0.00215663
2871.49	0.00189727
2881.13	0.00216743
2890.77	0.00256945
2900.41	0.00323213
2910.06	0.00438219
2919.7	0.00673753
2929.34	0.00670495
2938.98	0.00437312
2948.62	0.00437327
2958.27	0.00447984
2967.91	0.00344202
2977.55	0.00200083
2987.2	0.00261225
2996.84	0.00208089
3006.48	0.00196022
3016.12	0.00184746
3025.76	0.00285661
3035.41	0.00281334
3045.05	0.00304993
3054.69	0.00325928
3064.33	0.004007
3073.98	0.00483707
3083.62	0.00457199
3093.26	0.00547703
3102.9	0.00559428
3112.55	0.00553282
3122.19	0.00689396
3131.83	0.00603244
3141.47	0.00759529
3151.11	0.00701086
3160.76	0.00806495
3170.4	0.00882791
3180.04	0.00824843
3189.68	0.00952947
3199.33	0.00876494
3208.97	0.00983332
3218.61	0.0107526
3228.25	0.0108025
3237.9	0.0111049
3247.54	0.010399
3257.18	0.0107764
3266.82	0.011311
3276.47	0.0118345
3286.11	0.0114535
3295.75	0.0113078
3305.39	0.0122177
3315.03	0.0124801
3324.68	0.0122929
3334.32	0.0123735
3343.96	0.0127671
3353.6	0.0129033
3363.25	0.01248
3372.89	0.0124171
3382.53	0.0123944
3392.17	0.0129541
3401.82	0.0125992
3411.46	0.0111889
3421.1	0.0122997
3430.74	0.0118068
3440.39	0.0114462
3450.03	0.0118872
3459.67	0.0114487
3469.31	0.0103449
3478.95	0.0100002
3488.6	0.00959565
3498.24	0.00970123
3507.88	0.00858274
3517.52	0.00750917
3527.17	0.00910401
3536.81	0.00772726
3546.45	0.00869511
3556.09	0.00964513
3565.74	0.0144766
3575.38	0.0188788
3585.02	0.0285362
3594.66	0.0412549
3604.3	0.0507503
3613.95	0.0482424
3623.59	0.0409207
3633.23	0.029653
3642.87	0.0158136
3652.52	0.00468483
3662.16	-0.0036155
3671.8	-0.00745125
3681.44	-0.0105211
3691.09	-0.0101886
3700.73	-0.0113948
3710.37	-0.0109165
3720.01	-0.0120859
3729.66	-0.0129399
3739.3	-0.0128498
3748.94	-0.0116771
3758.58	-0.0121444
3768.22	-0.0116104
3777.87	-0.0137839
3787.51	-0.0136117
3797.15	-0.0125254
3806.79	-0.0125403
3816.44	-0.01337
3826.08	-0.0126234
3835.72	-0.0134235
3845.36	-0.0137322
3855.01	-0.0143164
3864.65	-0.0141349
3874.29	-0.0141978
3883.93	-0.0138855
3893.57	-0.0153153
3903.22	-0.0137258
3912.86	-0.0152269
3922.5	-0.0137397
3932.14	-0.0131289
3941.79	-0.0143663
3951.43	-0.0173323
3961.07	-0.0153615
3970.71	-0.0153663
3980.36	-0.0167459
3990	-0.0147721
3999.64	-0.0151378
