Measurement: Infrared, Infrared Data Processed
Mineral: Muscovite
Rruff sample: R040104
Ideal chemistry: KAl_2_(Si_3_Al)O_10_(OH)_2_
Locality: unknown
Source: University of Arizona Mineral Museum
Description: Dark green hexagonal tablet
Measured chemistry: (K_0.91_Na_0.09_)_Σ=1_(Al_1.70_Fe^3+^_0.14_Mg_0.08_Fe^2+^_0.06_Ti_0.02_)_Σ=2_(Si_3.12_Al_0.88_)_Σ=4_O_10_(OH)_2_; OH estimated by charge balance
x	intensity
399.193	0
408.835	0.270631
418.477	0.282936
428.12	0.289099
437.762	0.298809
447.404	0.307544
457.047	0.305739
466.689	0.27876
476.331	0.244104
485.974	0.217632
495.616	0.202809
505.258	0.211498
514.901	0.243148
524.543	0.260536
534.185	0.244372
543.828	0.219956
553.47	0.200807
563.112	0.185655
572.755	0.184469
582.397	0.187688
592.039	0.19165
601.682	0.19386
611.324	0.196761
620.966	0.190035
630.609	0.184787
640.251	0.196751
649.893	0.196355
659.536	0.191328
669.178	0.185613
678.82	0.179568
688.463	0.173264
698.105	0.165207
707.747	0.159338
717.39	0.154747
727.032	0.151563
736.674	0.151155
746.317	0.148991
755.959	0.137239
765.601	0.122691
775.244	0.115825
784.886	0.115194
794.528	0.116652
804.171	0.115214
813.813	0.110366
823.455	0.106034
833.098	0.0942804
842.74	0.087901
852.382	0.0896773
862.025	0.0957291
871.667	0.105182
881.309	0.113835
890.952	0.121977
900.594	0.13643
910.236	0.149994
919.879	0.1539
929.521	0.153873
939.163	0.153707
948.806	0.165994
958.448	0.198096
968.09	0.237631
977.733	0.26392
987.375	0.267372
997.017	0.259997
1006.66	0.250185
1016.3	0.238732
1025.94	0.221656
1035.59	0.185206
1045.23	0.136479
1054.87	0.115961
1064.51	0.115153
1074.16	0.104442
1083.8	0.0868936
1093.44	0.0702012
1103.08	0.0580724
1112.72	0.0478946
1122.37	0.0378641
1132.01	0.0295458
1141.65	0.0229248
1151.3	0.0182139
1160.94	0.0156925
1170.58	0.0138216
1180.22	0.0126822
1189.86	0.0115686
1199.51	0.010395
1209.15	0.00952702
1218.79	0.00867081
1228.43	0.00792601
1238.08	0.00705269
1247.72	0.00659654
1257.36	0.00606434
1267	0.00575924
1276.64	0.00552537
1286.29	0.00543731
1295.93	0.00509601
1305.57	0.00525955
1315.21	0.00510969
1324.86	0.00529036
1334.5	0.00519601
1344.14	0.00530062
1353.78	0.00572973
1363.43	0.0058208
1373.07	0.00657186
1382.71	0.00589505
1392.35	0.00554905
1401.99	0.00592873
1411.64	0.00670084
1421.28	0.00667371
1430.92	0.00605729
1440.57	0.00592832
1450.21	0.00646513
1459.85	0.00647227
1469.49	0.00532691
1479.13	0.00462841
1488.78	0.00451169
1498.42	0.00453327
1508.06	0.00526165
1517.7	0.00561872
1527.35	0.00564429
1536.99	0.00664186
1546.63	0.00753614
1556.27	0.00777628
1565.91	0.007999
1575.56	0.00822367
1585.2	0.00833695
1594.84	0.00841944
1604.48	0.00804644
1614.13	0.00787686
1623.77	0.00857735
1633.41	0.00848479
1643.05	0.00868812
1652.7	0.00844267
1662.34	0.00731738
1671.98	0.00706358
1681.62	0.00718357
1691.27	0.00594633
1700.91	0.00621996
1710.55	0.00490922
1720.19	0.00579421
1729.84	0.00573037
1739.48	0.00459999
1749.12	0.00440301
1758.76	0.00537407
1768.4	0.00554725
1778.05	0.00505885
1787.69	0.00531989
1797.33	0.00516681
1806.97	0.005188
1816.62	0.00515731
1826.26	0.00557647
1835.9	0.0056408
1845.54	0.0053709
1855.18	0.00497633
1864.83	0.00517822
1874.47	0.00457518
1884.11	0.00417915
1893.75	0.00396892
1903.4	0.00391846
1913.04	0.00396869
1922.68	0.00369353
1932.32	0.0022479
1941.97	0.00174136
1951.61	0.000369521
1961.25	-0.000399497
1970.89	-0.00302836
1980.54	0.000143452
1990.18	0.00031356
1999.82	4.93443e-05
2009.46	-0.00276115
2019.11	-0.000958487
2028.75	-0.00279432
2038.39	-0.000286729
2048.03	0.000624143
2057.67	-0.000591977
2067.32	0.00204339
2076.96	0.00151086
2086.6	0.00322103
2096.24	0.00363936
2105.89	0.00451754
2115.53	0.00457642
2125.17	0.0030938
2134.81	0.00203952
2144.45	3.26686e-05
2154.1	-0.00166612
2163.74	0.00270614
2173.38	0.00331645
2183.02	0.00463317
2192.67	0.00465138
2202.31	0.00409915
2211.95	0.00401425
2221.59	0.0042654
2231.24	0.00495936
2240.88	0.00423932
2250.52	0.00517068
2260.16	0.00639908
2269.8	0.00616028
2279.45	0.00664584
2289.09	0.00768274
2298.73	0.00730187
2308.38	0.0074909
2318.02	0.00832787
2327.66	0.0078541
2337.3	0.00802065
2346.94	0.00819421
2356.59	0.00912449
2366.23	0.00843567
2375.87	0.00788473
2385.51	0.00860667
2395.16	0.00800931
2404.8	0.00743806
2414.44	0.00849141
2424.08	0.00856412
2433.72	0.00833369
2443.37	0.00849074
2453.01	0.00854494
2462.65	0.00834138
2472.29	0.00877521
2481.94	0.00764643
2491.58	0.00817286
2501.22	0.00759498
2510.86	0.00861566
2520.51	0.00835819
2530.15	0.0080208
2539.79	0.00872206
2549.43	0.00861873
2559.07	0.00888168
2568.72	0.00953346
2578.36	0.00818585
2588	0.00975273
2597.64	0.00923972
2607.29	0.00963155
2616.93	0.00985306
2626.57	0.00988284
2636.21	0.0100767
2645.86	0.00967215
2655.5	0.0106019
2665.14	0.0103242
2674.78	0.00991671
2684.43	0.00992834
2694.07	0.010109
2703.71	0.0107005
2713.35	0.0114546
2722.99	0.0103357
2732.64	0.0106545
2742.28	0.0118451
2751.92	0.0114266
2761.56	0.0113073
2771.21	0.0114117
2780.85	0.0114922
2790.49	0.0126496
2800.13	0.0121617
2809.78	0.0129605
2819.42	0.0125174
2829.06	0.0141259
2838.7	0.0151175
2848.34	0.0121654
2857.99	0.0133052
2867.63	0.0146135
2877.27	0.0140537
2886.91	0.0146951
2896.56	0.0145488
2906.2	0.0169497
2915.84	0.0167451
2925.48	0.0151196
2935.13	0.014028
2944.77	0.0170626
2954.41	0.0176677
2964.05	0.017119
2973.7	0.0146408
2983.34	0.0141878
2992.98	0.0146143
3002.62	0.0141482
3012.26	0.0148742
3021.91	0.014851
3031.55	0.0163173
3041.19	0.0166467
3050.83	0.0159128
3060.48	0.0167425
3070.12	0.0163782
3079.76	0.0166657
3089.4	0.0177315
3099.05	0.0181922
3108.69	0.0204626
3118.33	0.018482
3127.97	0.0192547
3137.61	0.0188538
3147.26	0.02052
3156.9	0.0200622
3166.54	0.0212784
3176.18	0.0209612
3185.83	0.0225533
3195.47	0.0218899
3205.11	0.0226507
3214.75	0.022085
3224.4	0.0224089
3234.04	0.0223149
3243.68	0.0259786
3253.32	0.024475
3262.97	0.0256018
3272.61	0.0247773
3282.25	0.0250796
3291.89	0.0270117
3301.53	0.0244553
3311.18	0.0245315
3320.82	0.0262616
3330.46	0.0267802
3340.1	0.0261626
3349.75	0.0272662
3359.39	0.0280687
3369.03	0.0278694
3378.67	0.027506
3388.32	0.0258778
3397.96	0.0268343
3407.6	0.0271767
3417.24	0.0280615
3426.89	0.0289069
3436.53	0.0273911
3446.17	0.0275733
3455.81	0.0278022
3465.45	0.0289109
3475.1	0.0280135
3484.74	0.0278066
3494.38	0.0266111
3504.02	0.0291087
3513.67	0.0281688
3523.31	0.0273711
3532.95	0.0270343
3542.59	0.0266794
3552.24	0.0260905
3561.88	0.028286
3571.52	0.029449
3581.16	0.032235
3590.8	0.03593
3600.45	0.0415656
3610.09	0.0467414
3619.73	0.0536638
3629.37	0.0483518
3639.02	0.0450567
3648.66	0.0369534
3658.3	0.031269
3667.94	0.0242063
3677.59	0.0188152
3687.23	0.0171987
3696.87	0.0179775
3706.51	0.0156215
3716.16	0.0158895
3725.8	0.0156739
3735.44	0.0161034
3745.08	0.017853
3754.72	0.0159735
3764.37	0.0184244
3774.01	0.0171452
3783.65	0.0162561
3793.29	0.0163233
3802.94	0.0164142
3812.58	0.0160724
3822.22	0.0165988
3831.86	0.020069
3841.51	0.0171161
3851.15	0.0164466
3860.79	0.0195221
3870.43	0.0159952
3880.07	0.0181357
3889.72	0.0178156
3899.36	0.0191458
3909	0.017172
3918.64	0.0178652
3928.29	0.0195715
3937.93	0.0191649
3947.57	0.0200461
3957.21	0.0172834
3966.86	0.0180691
3976.5	0.0200556
3986.14	0.0187074
3995.78	0.0185008
