Measurement: Infrared, Infrared Data Processed
Mineral: Muscovite
Rruff sample: R050188
Ideal chemistry: KAl_2_(Si_3_Al)O_10_(OH)_2_
Locality: Sapinero, near Blue Mesa Reservoir, Gunnison County, Colorado, USA
Source: Dave Bunk Minerals
Description: Black pseudohexagonal crystal, polytype 2M1, associated with quartz
Measured chemistry: (K_0.91_Na_0.09_)(Al_0.86_Fe^3+^_0.06_Fe^2+^_0.04_Mg_0.03_Ti_0.01_)_2_(Si_0.78_Al_0.22_)_4_O_10_(OH)_2_
x	intensity
374.123	0.117022
383.765	0.132282
393.407	0.14998
403.05	0.171051
412.692	0.168414
422.334	0.170052
431.976	0.172249
441.619	0.180201
451.261	0.188419
460.904	0.199413
470.546	0.207342
480.188	0.199203
489.83	0.175856
499.473	0.172291
509.115	0.180686
518.758	0.192877
528.4	0.185272
538.042	0.160671
547.684	0.129513
557.327	0.105104
566.969	0.0865691
576.611	0.075915
586.254	0.0674439
595.896	0.0562332
605.538	0.0487195
615.181	0.0459218
624.823	0.0436781
634.466	0.0400221
644.108	0.0369341
653.75	0.0361623
663.393	0.0402381
673.035	0.0467194
682.677	0.0522843
692.319	0.0551334
701.962	0.0572192
711.604	0.0630864
721.246	0.0700086
730.889	0.0775818
740.531	0.0900121
750.173	0.0894962
759.816	0.074615
769.458	0.0638373
779.101	0.068315
788.743	0.0773087
798.385	0.0850975
808.028	0.0877325
817.67	0.089583
827.312	0.0837799
836.955	0.0653945
846.597	0.0759148
856.239	0.103873
865.881	0.132689
875.524	0.153428
885.166	0.167664
894.808	0.184883
904.451	0.202061
914.093	0.207072
923.736	0.205326
933.378	0.202194
943.02	0.206442
952.663	0.228456
962.305	0.258202
971.947	0.277804
981.59	0.278739
991.232	0.267078
1000.87	0.253015
1010.52	0.239256
1020.16	0.223074
1029.8	0.198766
1039.44	0.156998
1049.09	0.118241
1058.73	0.109783
1068.37	0.108238
1078.01	0.095563
1087.65	0.0793515
1097.3	0.0649025
1106.94	0.0531323
1116.58	0.0419843
1126.22	0.0308671
1135.87	0.0217763
1145.51	0.0150484
1155.15	0.010975
1164.79	0.00865243
1174.44	0.00692852
1184.08	0.00570699
1193.72	0.00464935
1203.36	0.00371058
1213.01	0.00304465
1222.65	0.00251863
1232.29	0.00218811
1241.93	0.00204498
1251.58	0.00164916
1261.22	0.00130633
1270.86	0.00137557
1280.5	0.00134948
1290.14	0.0010933
1299.79	0.00102385
1309.43	0.00102397
1319.07	0.000907382
1328.71	0.000878471
1338.36	0.000785457
1348	0.000966203
1357.64	0.000981924
1367.28	0.00113162
1376.92	0.0014548
1386.57	0.0012503
1396.21	0.00123488
1405.85	0.00127383
1415.49	0.00123817
1425.14	0.00122576
1434.78	0.0016233
1444.42	0.00170134
1454.06	0.00213611
1463.71	0.00225244
1473.35	0.000952374
1482.99	0.00046582
1492.63	0.000330285
1502.28	0.000396526
1511.92	0.000382294
1521.56	0.000568999
1531.2	0.000792096
1540.85	0.000896604
1550.49	0.00125266
1560.13	0.00152815
1569.77	0.00162214
1579.41	0.00169399
1589.06	0.00151297
1598.7	0.00171929
1608.34	0.00175628
1617.98	0.00222223
1627.63	0.00261278
1637.27	0.00272235
1646.91	0.00297585
1656.55	0.0028534
1666.19	0.00277061
1675.84	0.00266989
1685.48	0.00253278
1695.12	0.00279019
1704.77	0.00314355
1714.41	0.00364391
1724.05	0.00431731
1733.69	0.00485609
1743.33	0.00508689
1752.98	0.00346053
1762.62	0.00134069
1772.26	0.00101967
1781.9	0.00110767
1791.55	0.00104726
1801.19	0.000731031
1810.83	0.000881271
1820.47	0.000727597
1830.12	0.000769888
1839.76	0.000198726
1849.4	0.000700839
1859.04	0.00038019
1868.68	-0.000110544
1878.33	-0.000591397
1887.97	-0.000116268
1897.61	-0.000512318
1907.25	-0.000595663
1916.9	-0.000920193
1926.54	-0.00122458
1936.18	-0.00116213
1945.82	-0.00110162
1955.46	-0.00160541
1965.11	-0.00142021
1974.75	-0.0023475
1984.39	-0.00194982
1994.04	-0.000691741
2003.68	-0.00145451
2013.32	0.000159743
2022.96	-0.00202033
2032.6	0.000323553
2042.25	-0.00163926
2051.89	-0.000539862
2061.53	-0.000898058
2071.17	-0.000641082
2080.82	0.000140784
2090.46	-0.000186897
2100.1	0.000858617
2109.74	-0.000233694
2119.39	-0.000470772
2129.03	-5.03808e-05
2138.67	-0.000267323
2148.31	0.000778937
2157.95	0.000444638
2167.6	0.000616979
2177.24	0.00143875
2186.88	0.00042756
2196.52	0.00138245
2206.17	0.000822316
2215.81	0.000842492
2225.45	0.000253534
2235.09	0.000893038
2244.74	0.00067361
2254.38	0.00116733
2264.02	0.00129872
2273.66	0.00082467
2283.3	0.00148479
2292.95	0.000840366
2302.59	0.00107206
2312.23	0.000253909
2321.87	0.000672175
2331.52	0.000369861
2341.16	0.000201687
2350.8	0.000565954
2360.44	-0.000146603
2370.09	0.000235815
2379.73	0.000937632
2389.37	0.000905739
2399.01	0.000636299
2408.66	0.00118432
2418.3	0.000930602
2427.94	0.00122711
2437.58	0.000742519
2447.22	0.000802826
2456.87	0.00118283
2466.51	0.00067106
2476.15	0.00104013
2485.79	0.000875775
2495.44	0.000892114
2505.08	0.000548417
2514.72	0.000625427
2524.36	0.000452461
2534.01	0.000429779
2543.65	0.000818837
2553.29	0.000512422
2562.93	0.000536571
2572.57	0.00106459
2582.22	0.00105629
2591.86	0.000977012
2601.5	0.00156557
2611.14	0.00172522
2620.79	0.00129343
2630.43	0.00127513
2640.07	0.0016593
2649.71	0.00172442
2659.36	0.00149086
2669	0.00158391
2678.64	0.00158065
2688.28	0.00187196
2697.93	0.00179962
2707.57	0.00200318
2717.21	0.00224248
2726.85	0.00241047
2736.49	0.00186166
2746.14	0.00220438
2755.78	0.00219941
2765.42	0.00231417
2775.06	0.00282875
2784.71	0.0024531
2794.35	0.00256654
2803.99	0.00312074
2813.63	0.00321832
2823.28	0.00385428
2832.92	0.00464885
2842.56	0.00659112
2852.2	0.0103131
2861.84	0.00887784
2871.49	0.00764091
2881.13	0.00659855
2890.77	0.0074545
2900.41	0.00930822
2910.06	0.0109289
2919.7	0.0152554
2929.34	0.0177816
2938.98	0.011902
2948.62	0.0095778
2958.27	0.00944872
2967.91	0.00678587
2977.55	0.00514131
2987.2	0.00392873
2996.84	0.00467551
3006.48	0.00504498
3016.12	0.00299098
3025.76	0.00446937
3035.41	0.00416868
3045.05	0.00456008
3054.69	0.00476331
3064.33	0.00455785
3073.98	0.00494261
3083.62	0.00475928
3093.26	0.0045657
3102.9	0.00518341
3112.55	0.00501629
3122.19	0.00501709
3131.83	0.00590544
3141.47	0.00564485
3151.11	0.0065001
3160.76	0.00573587
3170.4	0.00654781
3180.04	0.00642302
3189.68	0.00679155
3199.33	0.00681743
3208.97	0.00700244
3218.61	0.00698695
3228.25	0.00662429
3237.9	0.00740324
3247.54	0.00707533
3257.18	0.00729617
3266.82	0.0080834
3276.47	0.00763681
3286.11	0.00779274
3295.75	0.0076031
3305.39	0.00838847
3315.03	0.00795069
3324.68	0.00795049
3334.32	0.00883776
3343.96	0.00849075
3353.6	0.00870943
3363.25	0.00822532
3372.89	0.00837202
3382.53	0.00930466
3392.17	0.00902339
3401.82	0.0089171
3411.46	0.00874458
3421.1	0.00945387
3430.74	0.00860089
3440.39	0.00862145
3450.03	0.00963569
3459.67	0.00877322
3469.31	0.00871368
3478.95	0.00913313
3488.6	0.00888723
3498.24	0.00869958
3507.88	0.00867032
3517.52	0.00870372
3527.17	0.00940046
3536.81	0.0091013
3546.45	0.0089775
3556.09	0.00951939
3565.74	0.00965703
3575.38	0.0117158
3585.02	0.0157784
3594.66	0.0214879
3604.3	0.0284733
3613.95	0.0374193
3623.59	0.0422471
3633.23	0.0374174
3642.87	0.028087
3652.52	0.0201341
3662.16	0.0126324
3671.8	0.00729468
3681.44	0.00332885
3691.09	0.00154255
3700.73	0.00138616
3710.37	0.00107344
3720.01	0.00195672
3729.66	0.00157443
3739.3	0.00112696
3748.94	0.0017912
3758.58	0.000631361
3768.22	0.00168895
3777.87	0.00155703
3787.51	0.00200709
3797.15	0.00266482
3806.79	0.00152017
3816.44	0.00203318
3826.08	0.000647676
3835.72	0.00247725
3845.36	0.000912836
3855.01	0.00129814
3864.65	0.00170352
3874.29	0.00192992
3883.93	0.00191279
3893.57	0.00149112
3903.22	0.00172769
3912.86	0.00219274
3922.5	0.00279132
3932.14	0.00290693
3941.79	0.00173402
3951.43	0.00170242
3961.07	0.00239231
3970.71	0.00174484
3980.36	0.00260831
3990	0.00178622
3999.64	0.00181081
