Measurement: Infrared, Infrared Data Processed
Mineral: Muscovite
Rruff sample: R050080
Ideal chemistry: KAl_2_(Si_3_Al)O_10_(OH)_2_
Locality: Brazil
Source: Rock Currier
Description: Tan colored micaceous crystals of 2M1 polytype
Measured chemistry: (K_0.93_Na_0.07_)(Al_0.99_Fe^3+^_0.01_)_2_(Si_3.00_Al_1.00_)O_10_((OH)_0.97_F_0.03_)_2_
x	intensity
399.193	0.217378
408.835	0.236803
418.477	0.234596
428.12	0.247471
437.762	0.259552
447.404	0.27052
457.047	0.278995
466.689	0.266804
476.331	0.238192
485.974	0.212713
495.616	0.191469
505.258	0.19236
514.901	0.218015
524.543	0.252983
534.185	0.247724
543.828	0.211269
553.47	0.180087
563.112	0.156462
572.755	0.14847
582.397	0.151208
592.039	0.149705
601.682	0.152519
611.324	0.161572
620.966	0.160668
630.609	0.154298
640.251	0.168036
649.893	0.169783
659.536	0.166413
669.178	0.162464
678.82	0.159108
688.463	0.154345
698.105	0.147918
707.747	0.141774
717.39	0.139933
727.032	0.138067
736.674	0.137157
746.317	0.139865
755.959	0.131431
765.601	0.11464
775.244	0.102537
784.886	0.0995146
794.528	0.102233
804.171	0.104739
813.813	0.0993407
823.455	0.0980551
833.098	0.0907412
842.74	0.0751696
852.382	0.0733553
862.025	0.0777373
871.667	0.0893006
881.309	0.10085
890.952	0.116455
900.594	0.147366
910.236	0.175953
919.879	0.188382
929.521	0.197411
939.163	0.191452
948.806	0.189483
958.448	0.216335
968.09	0.267421
977.733	0.303684
987.375	0.297394
997.017	0.277207
1006.66	0.261888
1016.3	0.246218
1025.94	0.223831
1035.59	0.1883
1045.23	0.140648
1054.87	0.126596
1064.51	0.1247
1074.16	0.107373
1083.8	0.0862261
1093.44	0.0683312
1103.08	0.0565308
1112.72	0.0461396
1122.37	0.0354221
1132.01	0.0256849
1141.65	0.0184356
1151.3	0.0144464
1160.94	0.0119277
1170.58	0.00983054
1180.22	0.00897619
1189.86	0.00810633
1199.51	0.00708892
1209.15	0.00631951
1218.79	0.00598975
1228.43	0.00503876
1238.08	0.00449875
1247.72	0.0038862
1257.36	0.00353437
1267	0.00322773
1276.64	0.00277988
1286.29	0.00220439
1295.93	0.00226219
1305.57	0.00234132
1315.21	0.00257235
1324.86	0.00227384
1334.5	0.00212425
1344.14	0.00200562
1353.78	0.00236973
1363.43	0.00263177
1373.07	0.00352644
1382.71	0.00275498
1392.35	0.00308696
1401.99	0.00338079
1411.64	0.00383495
1421.28	0.00406045
1430.92	0.00394121
1440.57	0.00384717
1450.21	0.00406433
1459.85	0.00389021
1469.49	0.00317993
1479.13	0.00235221
1488.78	0.00219149
1498.42	0.00224897
1508.06	0.00171338
1517.7	0.00177194
1527.35	0.00213041
1536.99	0.00245741
1546.63	0.00248496
1556.27	0.00270102
1565.91	0.00308345
1575.56	0.00274782
1585.2	0.00322814
1594.84	0.00354995
1604.48	0.00342699
1614.13	0.00367404
1623.77	0.00406492
1633.41	0.00409771
1643.05	0.00432571
1652.7	0.00400874
1662.34	0.00459227
1671.98	0.00429114
1681.62	0.00404342
1691.27	0.00401573
1700.91	0.00351337
1710.55	0.00361922
1720.19	0.00367055
1729.84	0.00268473
1739.48	0.0013057
1749.12	0.000922288
1758.76	0.00220503
1768.4	0.00279084
1778.05	0.00229717
1787.69	0.0025323
1797.33	0.0019548
1806.97	0.00217543
1816.62	0.00127942
1826.26	0.00165601
1835.9	0.0012071
1845.54	0.00103172
1855.18	0.000839304
1864.83	0.00189909
1874.47	0.000902938
1884.11	-0.000335786
1893.75	0.00035248
1903.4	-0.000517061
1913.04	-0.000463985
1922.68	-0.00211424
1932.32	-0.00248341
1941.97	-0.00342383
1951.61	-0.00508427
1961.25	-0.00436314
1970.89	-0.00803273
1980.54	-0.00277765
1990.18	-0.00652762
1999.82	-0.00603179
2009.46	-0.00740299
2019.11	-0.00620443
2028.75	-0.00756481
2038.39	-0.00565363
2048.03	-0.0034999
2057.67	-0.00404714
2067.32	-0.00314624
2076.96	-0.00140197
2086.6	-0.00162805
2096.24	-0.00142304
2105.89	-0.00116111
2115.53	-0.00174025
2125.17	-0.00149692
2134.81	-0.00417834
2144.45	-0.00234974
2154.1	-0.00702399
2163.74	-0.00114408
2173.38	-0.00328098
2183.02	-0.000414835
2192.67	0.000905174
2202.31	0.000838668
2211.95	0.000567919
2221.59	0.000616504
2231.24	0.000693071
2240.88	0.00223964
2250.52	0.00236355
2260.16	0.00135375
2269.8	0.00288868
2279.45	0.00328468
2289.09	0.00416378
2298.73	0.0044653
2308.38	0.00449655
2318.02	0.00525752
2327.66	0.00380675
2337.3	0.0040636
2346.94	0.00382092
2356.59	0.00335981
2366.23	0.00372945
2375.87	0.00299539
2385.51	0.00366182
2395.16	0.00396424
2404.8	0.00458798
2414.44	0.0042913
2424.08	0.00382127
2433.72	0.00441522
2443.37	0.00432162
2453.01	0.00421237
2462.65	0.00527655
2472.29	0.00432389
2481.94	0.00450578
2491.58	0.00478892
2501.22	0.00460342
2510.86	0.00496799
2520.51	0.0047839
2530.15	0.00502347
2539.79	0.00412642
2549.43	0.00496892
2559.07	0.00536099
2568.72	0.00572682
2578.36	0.00518361
2588	0.00607137
2597.64	0.00540032
2607.29	0.00580493
2616.93	0.00581166
2626.57	0.0057555
2636.21	0.00597494
2645.86	0.00653192
2655.5	0.00595804
2665.14	0.00543038
2674.78	0.00516636
2684.43	0.0048335
2694.07	0.00596635
2703.71	0.00564717
2713.35	0.00471856
2722.99	0.00566181
2732.64	0.00572407
2742.28	0.00553119
2751.92	0.00619315
2761.56	0.00604202
2771.21	0.00672814
2780.85	0.00666146
2790.49	0.00693643
2800.13	0.00656264
2809.78	0.00704686
2819.42	0.0073059
2829.06	0.0077459
2838.7	0.00880906
2848.34	0.00740753
2857.99	0.00700401
2867.63	0.00963148
2877.27	0.0100552
2886.91	0.00942519
2896.56	0.00994293
2906.2	0.0104385
2915.84	0.0111213
2925.48	0.0111076
2935.13	0.00967745
2944.77	0.0112269
2954.41	0.0112177
2964.05	0.0109098
2973.7	0.00967802
2983.34	0.00855237
2992.98	0.00880279
3002.62	0.00957992
3012.26	0.0093065
3021.91	0.00948215
3031.55	0.0102308
3041.19	0.00921335
3050.83	0.00949554
3060.48	0.0100738
3070.12	0.0111838
3079.76	0.0113072
3089.4	0.0109222
3099.05	0.00986752
3108.69	0.0117839
3118.33	0.0108641
3127.97	0.0101303
3137.61	0.0113322
3147.26	0.0124905
3156.9	0.013172
3166.54	0.0125522
3176.18	0.0136568
3185.83	0.0125417
3195.47	0.0133279
3205.11	0.0135737
3214.75	0.0131224
3224.4	0.0134179
3234.04	0.0144509
3243.68	0.0133263
3253.32	0.014772
3262.97	0.0148662
3272.61	0.0156594
3282.25	0.0151321
3291.89	0.0144928
3301.53	0.0168415
3311.18	0.0147931
3320.82	0.0163236
3330.46	0.0162208
3340.1	0.0170825
3349.75	0.0162803
3359.39	0.0172856
3369.03	0.0169538
3378.67	0.0166173
3388.32	0.0164862
3397.96	0.0168295
3407.6	0.0160659
3417.24	0.0172705
3426.89	0.0169209
3436.53	0.0179033
3446.17	0.0158704
3455.81	0.0179164
3465.45	0.0184253
3475.1	0.0168991
3484.74	0.0185705
3494.38	0.0181194
3504.02	0.0157954
3513.67	0.0181355
3523.31	0.0151886
3532.95	0.0141483
3542.59	0.0165554
3552.24	0.0154562
3561.88	0.0161017
3571.52	0.0147143
3581.16	0.0158187
3590.8	0.0182155
3600.45	0.0234485
3610.09	0.0356851
3619.73	0.050856
3629.37	0.0622867
3639.02	0.050169
3648.66	0.0462839
3658.3	0.0359384
3667.94	0.0222556
3677.59	0.0121904
3687.23	0.00868088
3696.87	0.00802025
3706.51	0.0043484
3716.16	0.00701741
3725.8	0.00564611
3735.44	0.00640332
3745.08	0.00656323
3754.72	0.00796805
3764.37	0.00856719
3774.01	0.00559345
3783.65	0.00847772
3793.29	0.00649584
3802.94	0.00662023
3812.58	0.010456
3822.22	0.00825583
3831.86	0.00597853
3841.51	0.00772654
3851.15	0.0051755
3860.79	0.00717304
3870.43	0.0046356
3880.07	0.00608698
3889.72	0.00907925
3899.36	0.00684917
3909	0.00654192
3918.64	0.00659269
3928.29	0.00650096
3937.93	0.00549737
3947.57	0.00598032
3957.21	0.00900926
3966.86	0.00934851
3976.5	0.00732384
3986.14	0.00873441
3995.78	0.00751106
