Measurement: Infrared, Infrared Data Processed
Mineral: Muscovite
Rruff sample: R050198
Ideal chemistry: KAl_2_(Si_3_Al)O_10_(OH)_2_
Locality: California, USA
Source: University of Arizona Mineral Museum
Description: Micaceous aggregate, polytype 2M1
Measured chemistry: (K_0.92_Na_0.08_)(Al_0.76_Mg_0.18_Fe^3+^_0.04_Fe^2+^_0.02_)_2_(Si_3.40_Al_0.60_)O_10_(OH)_2_
x	intensity
50.1401	0.00937393
52.0686	0.00541214
53.9971	0.00346069
55.9255	0.00563714
57.854	0.0057617
59.7825	0.00628594
61.7109	0.00808904
63.6394	0.0107912
65.5679	0.00836588
67.4963	0.00695046
69.4248	0.00867977
71.3533	0.0106873
73.2817	0.012266
75.2102	0.0119317
77.1387	0.0113338
79.0671	0.0114739
80.9956	0.0124069
82.9241	0.0130812
84.8525	0.0122734
86.781	0.0121891
88.7095	0.0138013
90.6379	0.0146552
92.5664	0.0145417
94.4948	0.0151987
96.4233	0.0159031
98.3518	0.0167047
100.28	0.0166757
102.209	0.0160169
104.137	0.0159607
106.066	0.0152721
107.994	0.0145974
109.923	0.0153634
111.851	0.0145209
113.779	0.0132485
115.708	0.0134235
117.636	0.0131338
119.565	0.0133456
121.493	0.0130604
123.422	0.0128477
125.35	0.0132804
127.279	0.0134778
129.207	0.0135155
131.136	0.0147088
133.064	0.0154849
134.993	0.0158558
136.921	0.0158439
138.85	0.0157411
140.778	0.0158781
142.707	0.0157958
144.635	0.015521
146.563	0.0155207
148.492	0.0152733
150.42	0.0151133
152.349	0.0153999
154.277	0.0154899
156.206	0.0156582
158.134	0.0160718
160.063	0.0160925
161.991	0.0165571
163.92	0.0168119
165.848	0.0164694
167.777	0.0163616
169.705	0.0162765
171.633	0.0164364
173.562	0.0170783
175.49	0.0177512
177.419	0.0181264
179.347	0.0187635
181.276	0.0196232
183.204	0.0203014
185.133	0.0210034
187.061	0.0213118
188.99	0.021787
190.918	0.0220787
192.847	0.0221818
194.775	0.02238
196.704	0.0221973
198.632	0.0214661
200.56	0.0214537
202.489	0.0218065
204.417	0.0217163
206.346	0.021713
208.274	0.0219723
210.203	0.022395
212.131	0.0227462
214.06	0.0229821
215.988	0.0233944
217.917	0.0238128
219.845	0.0240205
221.774	0.0241597
223.702	0.0244465
225.631	0.0251408
227.559	0.0259305
229.488	0.0262244
231.416	0.0264225
233.344	0.0266314
235.273	0.0268699
237.201	0.027516
239.13	0.0279661
241.058	0.0282367
242.987	0.028736
244.915	0.0294376
246.844	0.0297524
248.772	0.0304466
250.701	0.0310242
252.629	0.0309139
254.558	0.0310033
256.486	0.0311929
258.414	0.0310798
260.343	0.030709
262.271	0.0304274
264.2	0.0302588
266.128	0.030161
268.057	0.0301309
269.985	0.0301186
271.914	0.0303145
273.842	0.030701
275.771	0.0308253
277.699	0.0308975
279.628	0.0311467
281.556	0.0316041
283.485	0.032034
285.413	0.0323537
287.341	0.0325425
289.27	0.0329514
291.198	0.0332175
293.127	0.0336112
295.055	0.0340107
296.984	0.0344037
298.912	0.0349496
300.841	0.0354439
302.769	0.0358242
304.698	0.0360965
306.626	0.0363079
308.555	0.0367061
310.483	0.037218
312.411	0.0376392
314.34	0.037888
316.269	0.038117
318.197	0.0382735
320.125	0.0388831
322.054	0.0393323
323.982	0.0396388
325.911	0.0400893
327.839	0.0402301
329.768	0.0404095
331.696	0.0409892
333.625	0.0416249
335.553	0.0423628
337.482	0.0429718
339.41	0.0432979
341.339	0.0434912
343.267	0.0437157
345.195	0.0439919
347.124	0.0443434
349.052	0.0445655
350.981	0.0445922
352.909	0.0444724
354.838	0.0444575
356.766	0.0443094
358.695	0.0441479
360.623	0.0440021
362.552	0.0440919
364.48	0.0444907
366.409	0.0448924
368.337	0.0451258
370.265	0.0455148
372.194	0.0463057
374.122	0.0471108
376.051	0.0475872
377.979	0.0478798
379.908	0.0481233
381.836	0.0484246
383.765	0.0488249
385.693	0.049051
387.622	0.049338
389.55	0.0496274
391.479	0.0500346
393.407	0.0506624
395.336	0.0509347
397.264	0.051161
399.192	0.0516415
401.121	0.0523638
403.049	0.052953
404.978	0.0536054
406.906	0.0543496
408.835	0.0550113
410.763	0.0557856
412.692	0.0564964
414.62	0.0569829
416.549	0.0577057
418.477	0.0583284
420.406	0.0587233
422.334	0.0590546
424.262	0.0588913
426.191	0.0586083
428.12	0.0582446
430.048	0.058231
431.976	0.0583995
433.905	0.058244
435.833	0.0583326
437.762	0.0582111
439.69	0.0581193
441.619	0.0582083
443.547	0.0582671
445.476	0.0582724
447.404	0.0586611
449.333	0.0594683
451.261	0.0601025
453.19	0.0605005
455.118	0.0612719
457.046	0.0623911
458.975	0.0631053
460.903	0.0638135
462.832	0.0645341
464.76	0.0650267
466.689	0.0651371
468.617	0.0649822
470.546	0.0648636
472.474	0.0640156
474.403	0.0629869
476.331	0.0620161
478.26	0.0608955
480.188	0.059734
482.116	0.0588226
484.045	0.0583549
485.974	0.0584044
487.902	0.0584173
489.83	0.058436
491.759	0.0584888
493.687	0.0588604
495.616	0.0591353
497.544	0.0598204
499.473	0.0604846
501.401	0.0612238
503.33	0.0622636
505.258	0.0634366
507.187	0.0642341
509.115	0.0647384
511.043	0.0651625
512.972	0.0652903
514.9	0.0654813
516.829	0.0655697
518.757	0.0652033
520.686	0.0645649
522.614	0.0639371
524.543	0.0638024
526.471	0.0634623
528.4	0.0627261
530.328	0.062012
532.257	0.0613764
534.185	0.0604411
536.114	0.0593886
538.042	0.0585521
539.971	0.0578004
541.899	0.0568809
543.827	0.0564185
545.756	0.0559715
547.684	0.0554244
549.613	0.0548038
551.541	0.0541932
553.47	0.0535366
555.398	0.0531444
557.327	0.0529492
559.255	0.0526311
561.184	0.0518907
563.112	0.0509612
565.041	0.0504183
566.969	0.0495231
568.898	0.0487682
570.826	0.0484757
572.755	0.0482354
574.683	0.0476834
576.611	0.046924
578.54	0.0463691
580.468	0.0458816
582.397	0.0451652
584.325	0.044723
586.254	0.0444283
588.182	0.0441701
590.111	0.0436798
592.039	0.0429235
593.968	0.0423124
595.896	0.0419697
597.824	0.0420147
599.753	0.0418329
601.682	0.0414139
603.61	0.0412149
605.538	0.0407276
607.467	0.0399743
609.395	0.0399056
611.324	0.0399619
613.252	0.0399441
615.181	0.0403019
617.109	0.0406755
619.038	0.0406847
620.966	0.0409414
622.894	0.0413967
624.823	0.0422436
626.751	0.0432999
628.68	0.0444828
630.608	0.0455743
632.537	0.0459421
634.465	0.0457116
636.394	0.0455876
638.322	0.0455761
640.251	0.0458077
642.179	0.0458148
644.108	0.0460419
646.036	0.0462168
647.965	0.0460875
649.893	0.0460242
651.822	0.0460704
653.75	0.0462969
655.678	0.0465617
657.607	0.0463646
659.535	0.0466147
661.464	0.0471782
663.392	0.0472644
665.321	0.0475221
667.249	0.0479533
669.178	0.0482458
671.106	0.0488168
673.035	0.0489715
674.963	0.0487473
676.892	0.0488532
678.82	0.0492807
680.749	0.049131
682.677	0.04862
684.606	0.0484772
686.534	0.048764
688.462	0.0489141
690.391	0.049867
692.319	0.050276
694.248	0.0503657
696.176	0.050137
698.105	0.0503212
700.033	0.0496044
