Measurement: Infrared, Infrared Data Processed
Mineral: Natrojarosite
Rruff sample: R050289
Ideal chemistry: NaFe^3+^_3_(S^6+^O_4_)_2_(OH)_6_
Locality: Bristol mine, Pioche, Lincoln County, Nevada, USA
Source: Marcus Origlieri
Description: Mustard-colored massive
Measured chemistry: (Na_0.99_K_0.01_)_Î£=1_Fe^3+^_3.00_(S_1.00_O_4_)_2_(OH)_6_
x	intensity
399.193	0.133112
408.835	0.159973
418.477	0.199555
428.12	0.243336
437.762	0.285059
447.404	0.2823
457.047	0.324084
466.689	0.362151
476.331	0.326294
485.974	0.248731
495.616	0.306561
505.258	0.322665
514.901	0.261315
524.543	0.213726
534.185	0.173901
543.828	0.143318
553.47	0.118692
563.112	0.109742
572.755	0.110463
582.397	0.106069
592.039	0.0976395
601.682	0.0949605
611.324	0.113352
620.966	0.16825
630.609	0.161934
640.251	0.0922596
649.893	0.0725077
659.536	0.0740604
669.178	0.0777244
678.82	0.0741758
688.463	0.0623671
698.105	0.0481616
707.747	0.0380764
717.39	0.0322759
727.032	0.0279626
736.674	0.0259875
746.317	0.0247136
755.959	0.0241545
765.601	0.024368
775.244	0.0251135
784.886	0.0266996
794.528	0.0283178
804.171	0.029033
813.813	0.029457
823.455	0.0299944
833.098	0.0312184
842.74	0.0346006
852.382	0.0385015
862.025	0.0421812
871.667	0.0457263
881.309	0.0491918
890.952	0.0539249
900.594	0.0603408
910.236	0.0685573
919.879	0.0775187
929.521	0.0909992
939.163	0.111759
948.806	0.140022
958.448	0.177496
968.09	0.228216
977.733	0.295094
987.375	0.384638
997.017	0.493111
1006.66	0.556522
1016.3	0.453155
1025.94	0.386371
1035.59	0.272188
1045.23	0.169909
1054.87	0.121849
1064.51	0.147262
1074.16	0.278391
1083.8	0.471359
1093.44	0.499022
1103.08	0.333471
1112.72	0.232669
1122.37	0.158551
1132.01	0.109517
1141.65	0.106194
1151.3	0.125933
1160.94	0.144174
1170.58	0.158141
1180.22	0.161283
1189.86	0.149414
1199.51	0.121844
1209.15	0.0877842
1218.79	0.0567498
1228.43	0.0358846
1238.08	0.0242442
1247.72	0.017567
1257.36	0.013825
1267	0.0110684
1276.64	0.00954314
1286.29	0.00817037
1295.93	0.00739012
1305.57	0.00701957
1315.21	0.00717907
1324.86	0.0070496
1334.5	0.00694233
1344.14	0.00712123
1353.78	0.007346
1363.43	0.0076478
1373.07	0.00789147
1382.71	0.00815005
1392.35	0.00844209
1401.99	0.00903874
1411.64	0.00964723
1421.28	0.0104358
1430.92	0.0105594
1440.57	0.01041
1450.21	0.0102406
1459.85	0.010082
1469.49	0.00936203
1479.13	0.00883881
1488.78	0.00848728
1498.42	0.00847712
1508.06	0.0087749
1517.7	0.00861476
1527.35	0.00880229
1536.99	0.0093471
1546.63	0.00963959
1556.27	0.0101493
1565.91	0.00979683
1575.56	0.0105266
1585.2	0.0105791
1594.84	0.0108133
1604.48	0.0108322
1614.13	0.0113162
1623.77	0.0122846
1633.41	0.0132727
1643.05	0.012968
1652.7	0.0138354
1662.34	0.0122195
1671.98	0.0114848
1681.62	0.0113019
1691.27	0.0108209
1700.91	0.0114492
1710.55	0.0108182
1720.19	0.0109352
1729.84	0.0107837
1739.48	0.00958539
1749.12	0.00878732
1758.76	0.00905544
1768.4	0.00988901
1778.05	0.00961102
1787.69	0.00959766
1797.33	0.0097328
1806.97	0.00939218
1816.62	0.00938021
1826.26	0.00961606
1835.9	0.00921273
1845.54	0.00938788
1855.18	0.00960943
1864.83	0.00958796
1874.47	0.00984833
1884.11	0.00938543
1893.75	0.0106312
1903.4	0.0107866
1913.04	0.011196
1922.68	0.011438
1932.32	0.0125137
1941.97	0.0128903
1951.61	0.0136822
1961.25	0.0175397
1970.89	0.0194203
1980.54	0.0243737
1990.18	0.0268776
1999.82	0.0230192
2009.46	0.0182342
2019.11	0.0188817
2028.75	0.0223605
2038.39	0.0242539
2048.03	0.0264184
2057.67	0.0234143
2067.32	0.0208393
2076.96	0.0192358
2086.6	0.0191667
2096.24	0.0194566
2105.89	0.0193678
2115.53	0.019443
2125.17	0.0193544
2134.81	0.0188857
2144.45	0.016125
2154.1	0.0173166
2163.74	0.0174849
2173.38	0.0168775
2183.02	0.0156965
2192.67	0.0166631
2202.31	0.0187297
2211.95	0.0167385
2221.59	0.0166758
2231.24	0.0170365
2240.88	0.0182528
2250.52	0.0176525
2260.16	0.0169594
2269.8	0.0174682
2279.45	0.0175785
2289.09	0.0167175
2298.73	0.0161576
2308.38	0.0156051
2318.02	0.0157004
2327.66	0.0158537
2337.3	0.0154621
2346.94	0.015596
2356.59	0.0155034
2366.23	0.0158299
2375.87	0.01555
2385.51	0.0152019
2395.16	0.0155439
2404.8	0.0147589
2414.44	0.0161242
2424.08	0.0162585
2433.72	0.0163458
2443.37	0.0169091
2453.01	0.0177779
2462.65	0.0181959
2472.29	0.0180637
2481.94	0.0184758
2491.58	0.0186961
2501.22	0.0191385
2510.86	0.0194009
2520.51	0.019359
2530.15	0.0196338
2539.79	0.0199214
2549.43	0.019989
2559.07	0.0203533
2568.72	0.0208312
2578.36	0.0211064
2588	0.0211316
2597.64	0.0211376
2607.29	0.0217659
2616.93	0.0218734
2626.57	0.0220068
2636.21	0.0226273
2645.86	0.0223103
2655.5	0.0225244
2665.14	0.0227351
2674.78	0.0226629
2684.43	0.0228474
2694.07	0.0231465
2703.71	0.0233559
2713.35	0.0238205
2722.99	0.0240423
2732.64	0.024661
2742.28	0.024826
2751.92	0.0252769
2761.56	0.0256226
2771.21	0.0260563
2780.85	0.0266271
2790.49	0.0266511
2800.13	0.0271688
2809.78	0.0276468
2819.42	0.0277773
2829.06	0.0288757
2838.7	0.0290083
2848.34	0.0280198
2857.99	0.0292736
2867.63	0.030589
2877.27	0.031256
2886.91	0.0314556
2896.56	0.0322396
2906.2	0.03253
2915.84	0.0316795
2925.48	0.0332541
2935.13	0.0338318
2944.77	0.0343281
2954.41	0.0364359
2964.05	0.0366102
2973.7	0.0362664
2983.34	0.0371124
2992.98	0.0369748
3002.62	0.0380649
3012.26	0.0401461
3021.91	0.0412132
3031.55	0.0428476
3041.19	0.0442368
3050.83	0.0460386
3060.48	0.0477839
3070.12	0.0490206
3079.76	0.0515951
3089.4	0.0540407
3099.05	0.0564544
3108.69	0.0590097
3118.33	0.0617714
3127.97	0.0648246
3137.61	0.0668324
3147.26	0.0685322
3156.9	0.0712028
3166.54	0.0735124
3176.18	0.0767359
3185.83	0.081535
3195.47	0.085621
3205.11	0.0898035
3214.75	0.0946813
3224.4	0.099547
3234.04	0.106811
3243.68	0.114965
3253.32	0.126946
3262.97	0.139061
3272.61	0.152656
3282.25	0.168802
3291.89	0.183703
3301.53	0.199523
3311.18	0.220814
3320.82	0.248628
3330.46	0.288168
3340.1	0.349313
3349.75	0.419266
3359.39	0.425116
3369.03	0.337078
3378.67	0.295324
3388.32	0.248966
3397.96	0.183
3407.6	0.153342
3417.24	0.13237
3426.89	0.109514
3436.53	0.0915977
3446.17	0.0767936
3455.81	0.0634606
3465.45	0.0513207
3475.1	0.0417898
3484.74	0.0353969
3494.38	0.0306431
3504.02	0.0281682
3513.67	0.0248587
3523.31	0.0223269
3532.95	0.0209152
3542.59	0.018949
3552.24	0.0178497
3561.88	0.0171333
3571.52	0.016417
3581.16	0.0166731
3590.8	0.0163129
3600.45	0.0150025
3610.09	0.0151778
3619.73	0.0145241
3629.37	0.0148031
3639.02	0.0138824
3648.66	0.0145262
3658.3	0.0136823
3667.94	0.0138315
3677.59	0.0135938
3687.23	0.0136937
3696.87	0.0133631
3706.51	0.0140094
3716.16	0.0142677
3725.8	0.015139
3735.44	0.0154606
3745.08	0.0162616
3754.72	0.0155198
3764.37	0.0158545
3774.01	0.0166821
3783.65	0.0159001
3793.29	0.0152756
3802.94	0.0180555
3812.58	0.0168299
3822.22	0.0173984
3831.86	0.0179151
3841.51	0.0170156
3851.15	0.0184697
3860.79	0.0173411
3870.43	0.0178686
3880.07	0.0168795
3889.72	0.0174203
3899.36	0.017585
3909	0.0170695
3918.64	0.0180891
3928.29	0.0171652
3937.93	0.0174074
3947.57	0.0174478
3957.21	0.0169023
3966.86	0.0178284
3976.5	0.0172361
3986.14	0.0172781
3995.78	0.0178733
