Measurement: Infrared, Infrared Data Processed
Mineral: Natrolite
Rruff sample: R040112
Ideal chemistry: Na_2_(Si_3_Al_2_)O_10_2H_2_O
Locality: Ice River Alkaline Complex, Moose Creek Valley, Yoho National Park, British Columbia, Canada
Source: National Museums of Canada
Description: Colorless pseudohexagonal prism
Measured chemistry: Na_2.00_(Si_3.00_Al_2.00_)O_10_Â·2H_2_O
x	intensity
399.193	0
408.835	0.169636
418.477	0.175818
428.12	0.0991315
437.762	0.0729042
447.404	0.0553741
457.047	0.0358443
466.689	0.0484973
476.331	0.0813249
485.974	0.111661
495.616	0.102196
505.258	0.105698
514.901	0.0912538
524.543	0.0622626
534.185	0.0646712
543.828	0.0717393
553.47	0.0648197
563.112	0.0631727
572.755	0.0823407
582.397	0.0799697
592.039	0.0847753
601.682	0.10636
611.324	0.108273
620.966	0.126471
630.609	0.0979712
640.251	0.064717
649.893	0.0583659
659.536	0.0552144
669.178	0.0529704
678.82	0.0658403
688.463	0.0481586
698.105	0.041113
707.747	0.0321299
717.39	0.0340632
727.032	0.0255417
736.674	0.0157809
746.317	0.0136217
755.959	0.0133839
765.601	0.0136073
775.244	0.012859
784.886	0.0126362
794.528	0.0127318
804.171	0.0133516
813.813	0.0143777
823.455	0.0155523
833.098	0.0174459
842.74	0.0204607
852.382	0.02236
862.025	0.0258336
871.667	0.0312317
881.309	0.0393749
890.952	0.0525444
900.594	0.0660035
910.236	0.0813451
919.879	0.105188
929.521	0.141431
939.163	0.189327
948.806	0.249034
958.448	0.307857
968.09	0.291841
977.733	0.283302
987.375	0.254064
997.017	0.200527
1006.66	0.143683
1016.3	0.0924959
1025.94	0.0579736
1035.59	0.0909497
1045.23	0.137858
1054.87	0.148616
1064.51	0.146936
1074.16	0.109742
1083.8	0.115276
1093.44	0.0968517
1103.08	0.0763556
1112.72	0.0565681
1122.37	0.0325217
1132.01	0.0223478
1141.65	0.0171733
1151.3	0.0137259
1160.94	0.0113393
1170.58	0.00952775
1180.22	0.00790011
1189.86	0.00659672
1199.51	0.00575163
1209.15	0.00472447
1218.79	0.00386584
1228.43	0.00361259
1238.08	0.00319802
1247.72	0.0030255
1257.36	0.00285632
1267	0.00289265
1276.64	0.00288666
1286.29	0.00285099
1295.93	0.0028977
1305.57	0.00254834
1315.21	0.00275942
1324.86	0.00271362
1334.5	0.00266903
1344.14	0.00277467
1353.78	0.00261248
1363.43	0.00277016
1373.07	0.0024349
1382.71	0.0024397
1392.35	0.00240124
1401.99	0.00274168
1411.64	0.00293162
1421.28	0.00313659
1430.92	0.0032911
1440.57	0.00297172
1450.21	0.003099
1459.85	0.0029543
1469.49	0.00256572
1479.13	0.00252027
1488.78	0.00208496
1498.42	0.00203197
1508.06	0.00241107
1517.7	0.00228432
1527.35	0.00224202
1536.99	0.00194159
1546.63	0.00291225
1556.27	0.00226706
1565.91	0.00430711
1575.56	0.003591
1585.2	0.00504478
1594.84	0.00556767
1604.48	0.0065023
1614.13	0.00734063
1623.77	0.0109741
1633.41	0.0123487
1643.05	0.00807715
1652.7	0.00400973
1662.34	0.00438097
1671.98	0.00379939
1681.62	0.00266872
1691.27	0.00324774
1700.91	0.00355357
1710.55	0.00236933
1720.19	0.00245193
1729.84	0.00215858
1739.48	0.00186799
1749.12	0.00169332
1758.76	0.00189765
1768.4	0.00195281
1778.05	0.00146836
1787.69	0.000958893
1797.33	0.00135897
1806.97	0.00118495
1816.62	0.000924579
1826.26	0.00101362
1835.9	0.000421384
1845.54	0.000980494
1855.18	0.000461709
1864.83	0.000165316
1874.47	-0.000152597
1884.11	-0.000397371
1893.75	-0.00145301
1903.4	-0.0012353
1913.04	-0.000902374
1922.68	-0.0020867
1932.32	-0.00268492
1941.97	-0.00264974
1951.61	-0.00274457
1961.25	-0.0041898
1970.89	-0.00618519
1980.54	-0.00437411
1990.18	-0.00385382
1999.82	-0.00438712
2009.46	-0.00472213
2019.11	-0.0040419
2028.75	-0.00200856
2038.39	0.000326938
2048.03	-0.000868419
2057.67	0.00197925
2067.32	0.00185186
2076.96	-0.0012495
2086.6	-0.00217798
2096.24	-0.0013225
2105.89	-0.000611375
2115.53	8.33318e-05
2125.17	-0.000281195
2134.81	-0.00132978
2144.45	-0.000823258
2154.1	-0.00497219
2163.74	-0.00263092
2173.38	-0.00115175
2183.02	-0.00143451
2192.67	-0.00102672
2202.31	0.00190215
2211.95	-0.0013845
2221.59	0.000644758
2231.24	0.00119347
2240.88	0.00074879
2250.52	0.00240281
2260.16	0.00256547
2269.8	0.0017359
2279.45	0.00324677
2289.09	0.00305865
2298.73	0.00238037
2308.38	0.0019886
2318.02	0.00263016
2327.66	0.00284998
2337.3	0.00233209
2346.94	0.00336901
2356.59	0.00218246
2366.23	0.00213851
2375.87	0.00138647
2385.51	0.00209909
2395.16	0.00264919
2404.8	0.002872
2414.44	0.00300057
2424.08	0.00247195
2433.72	0.00218954
2443.37	0.00316701
2453.01	0.00349587
2462.65	0.00315199
2472.29	0.00252286
2481.94	0.00324976
2491.58	0.00305167
2501.22	0.002703
2510.86	0.0035008
2520.51	0.0020556
2530.15	0.00315727
2539.79	0.00373914
2549.43	0.0032614
2559.07	0.00346392
2568.72	0.00303675
2578.36	0.00339079
2588	0.00378836
2597.64	0.00359056
2607.29	0.00295615
2616.93	0.0031482
2626.57	0.00370372
2636.21	0.00349466
2645.86	0.0032813
2655.5	0.00354442
2665.14	0.00312182
2674.78	0.0029849
2684.43	0.00266005
2694.07	0.00342212
2703.71	0.00304224
2713.35	0.00332805
2722.99	0.00388733
2732.64	0.00355122
2742.28	0.0043705
2751.92	0.00319698
2761.56	0.00369915
2771.21	0.00356203
2780.85	0.00404362
2790.49	0.00406711
2800.13	0.00474119
2809.78	0.00510629
2819.42	0.00398677
2829.06	0.00519604
2838.7	0.00471851
2848.34	0.00446171
2857.99	0.00468393
2867.63	0.00456421
2877.27	0.00489499
2886.91	0.00574457
2896.56	0.00570301
2906.2	0.00662708
2915.84	0.00613927
2925.48	0.00529412
2935.13	0.00685682
2944.77	0.00660921
2954.41	0.0063165
2964.05	0.00678775
2973.7	0.00680617
2983.34	0.00653403
2992.98	0.00844513
3002.62	0.00672127
3012.26	0.00787242
3021.91	0.00764168
3031.55	0.00701202
3041.19	0.00842925
3050.83	0.00733776
3060.48	0.00974392
3070.12	0.00798106
3079.76	0.0102701
3089.4	0.0107916
3099.05	0.0113074
3108.69	0.0108773
3118.33	0.0128201
3127.97	0.0122234
3137.61	0.0126623
3147.26	0.0152899
3156.9	0.0163625
3166.54	0.0182487
3176.18	0.0198556
3185.83	0.0200006
3195.47	0.0207174
3205.11	0.0194946
3214.75	0.0192888
3224.4	0.017704
3234.04	0.0205851
3243.68	0.017043
3253.32	0.0187282
3262.97	0.0196951
3272.61	0.0222574
3282.25	0.0235133
3291.89	0.0282224
3301.53	0.0351655
3311.18	0.0443759
3320.82	0.0498655
3330.46	0.0459781
3340.1	0.0360074
3349.75	0.0285827
3359.39	0.0253489
3369.03	0.0241573
3378.67	0.0217014
3388.32	0.0210238
3397.96	0.0222345
3407.6	0.0197845
3417.24	0.0207979
3426.89	0.0203613
3436.53	0.0185962
3446.17	0.0207
3455.81	0.0199579
3465.45	0.0199492
3475.1	0.0208806
3484.74	0.0200744
3494.38	0.0214773
3504.02	0.0243921
3513.67	0.0309699
3523.31	0.0470154
3532.95	0.0668771
3542.59	0.0595544
3552.24	0.0406401
3561.88	0.0256076
3571.52	0.0195798
3581.16	0.0171757
3590.8	0.0152104
3600.45	0.0134488
3610.09	0.0114009
3619.73	0.0100731
3629.37	0.0091948
3639.02	0.0102688
3648.66	0.00627768
3658.3	0.00801286
3667.94	0.00732346
3677.59	0.00800972
3687.23	0.00312241
3696.87	0.00763941
3706.51	0.00627485
3716.16	0.00872449
3725.8	0.00760435
3735.44	0.00458901
3745.08	0.00719027
3754.72	0.00640707
3764.37	0.00705494
3774.01	0.0082532
3783.65	0.00990808
3793.29	0.00748769
3802.94	0.00692223
3812.58	0.00725733
3822.22	0.00837838
3831.86	0.00537149
3841.51	0.00789701
3851.15	0.00457933
3860.79	0.00930262
3870.43	0.00785115
3880.07	0.00965778
3889.72	0.00867165
3899.36	0.0101461
3909	0.00832603
3918.64	0.00893644
3928.29	0.0108194
3937.93	0.00883457
3947.57	0.00833332
3957.21	0.0111185
3966.86	0.011038
3976.5	0.0118368
3986.14	0.00930931
3995.78	0.0129113
