Measurement: Infrared, Infrared Data Processed
Mineral: Natrojarosite
Rruff sample: R050471
Ideal chemistry: NaFe^3+^_3_(S^6+^O_4_)_2_(OH)_6_
Locality: Bristol mine, Pioche, Lincoln County, Nevada, USA
Source: Marcus Origlieri
Description: Tan colored, fine-grained massive
Measured chemistry: (Na_0.60_K_0.30_Pb_0.10_)_Σ=1_(Fe^3+^_2.98_Al_0.02_)_Σ=3_((S_0.95_As_0.05_)_Σ=1_O_4_)_2_(OH)_6_
x	intensity
374.123	0.100095
383.765	0.119226
393.407	0.138639
403.05	0.165046
412.692	0.191489
422.334	0.222922
431.976	0.260091
441.619	0.30989
451.261	0.28663
460.904	0.370149
470.546	0.393979
480.188	0.309421
489.83	0.257814
499.473	0.361086
509.115	0.328457
518.758	0.256512
528.4	0.204025
538.042	0.162034
547.684	0.130564
557.327	0.116914
566.969	0.122344
576.611	0.126863
586.254	0.120361
595.896	0.107303
605.538	0.103795
615.181	0.127367
624.823	0.195059
634.466	0.152675
644.108	0.0932739
653.75	0.0839299
663.393	0.0904375
673.035	0.085114
682.677	0.0739564
692.319	0.0606261
701.962	0.0497557
711.604	0.0433371
721.246	0.0391927
730.889	0.0369082
740.531	0.036205
750.173	0.0354383
759.816	0.0370454
769.458	0.0399008
779.101	0.0456882
788.743	0.0570699
798.385	0.0752695
808.028	0.0885989
817.67	0.0875296
827.312	0.0760479
836.955	0.0664006
846.597	0.0671756
856.239	0.0722164
865.881	0.0752087
875.524	0.0713827
885.166	0.0654291
894.808	0.0654251
904.451	0.0691299
914.093	0.0721626
923.736	0.0730267
933.378	0.0771767
943.02	0.0892279
952.663	0.112623
962.305	0.14957
971.947	0.209851
981.59	0.307874
991.232	0.446503
1000.87	0.58859
1010.52	0.526598
1020.16	0.464952
1029.8	0.337895
1039.44	0.218599
1049.09	0.149431
1058.73	0.161721
1068.37	0.239983
1078.01	0.408234
1087.65	0.520685
1097.3	0.423091
1106.94	0.272933
1116.58	0.177885
1126.22	0.115072
1135.87	0.101444
1145.51	0.119825
1155.15	0.140635
1164.79	0.162359
1174.44	0.178983
1184.08	0.181597
1193.72	0.162203
1203.36	0.126265
1213.01	0.0870125
1222.65	0.0561764
1232.29	0.0355592
1241.93	0.0233459
1251.58	0.0166189
1261.22	0.0126839
1270.86	0.00992285
1280.5	0.00799456
1290.14	0.00686465
1299.79	0.00624285
1309.43	0.00640557
1319.07	0.00617133
1328.71	0.00615649
1338.36	0.00616731
1348	0.00641194
1357.64	0.00652228
1367.28	0.0065797
1376.92	0.00670676
1386.57	0.00712525
1396.21	0.00749226
1405.85	0.00802409
1415.49	0.00886086
1425.14	0.00923882
1434.78	0.00937968
1444.42	0.00935017
1454.06	0.00893702
1463.71	0.00850764
1473.35	0.00743677
1482.99	0.00623438
1492.63	0.00589435
1502.28	0.00574285
1511.92	0.00618392
1521.56	0.00704738
1531.2	0.00770286
1540.85	0.00834541
1550.49	0.00795185
1560.13	0.00831659
1569.77	0.00801548
1579.41	0.00806811
1589.06	0.00786274
1598.7	0.00775247
1608.34	0.00793767
1617.98	0.00858242
1627.63	0.00958655
1637.27	0.0106029
1646.91	0.0100472
1656.55	0.00955363
1666.19	0.00873982
1675.84	0.0079807
1685.48	0.00780457
1695.12	0.00719834
1704.77	0.00681181
1714.41	0.00690751
1724.05	0.00664335
1733.69	0.00649518
1743.33	0.00543342
1752.98	0.00503414
1762.62	0.00533837
1772.26	0.00571941
1781.9	0.0056997
1791.55	0.00558218
1801.19	0.00545643
1810.83	0.00531185
1820.47	0.00520802
1830.12	0.00543232
1839.76	0.00525171
1849.4	0.00523196
1859.04	0.00564049
1868.68	0.00541914
1878.33	0.00515217
1887.97	0.00540407
1897.61	0.00584459
1907.25	0.005978
1916.9	0.00702106
1926.54	0.00744917
1936.18	0.00795421
1945.82	0.00962563
1955.46	0.0108087
1965.11	0.0152449
1974.75	0.0151721
1984.39	0.0187872
1994.04	0.0180403
2003.68	0.0128932
2013.32	0.0159854
2022.96	0.0162086
2032.6	0.0195102
2042.25	0.0222221
2051.89	0.020783
2061.53	0.0171145
2071.17	0.0162252
2080.82	0.0152997
2090.46	0.015348
2100.1	0.0151839
2109.74	0.0152316
2119.39	0.0144121
2129.03	0.0143279
2138.67	0.0136001
2148.31	0.0134028
2157.95	0.0138684
2167.6	0.0127725
2177.24	0.0116402
2186.88	0.0107527
2196.52	0.0124977
2206.17	0.0109801
2215.81	0.0108113
2225.45	0.0105908
2235.09	0.0116745
2244.74	0.0127746
2254.38	0.0115026
2264.02	0.0108082
2273.66	0.0121077
2283.3	0.0110187
2292.95	0.0103522
2302.59	0.0104353
2312.23	0.00942575
2321.87	0.0107536
2331.52	0.010018
2341.16	0.00959808
2350.8	0.00948393
2360.44	0.00978818
2370.09	0.00966867
2379.73	0.00896837
2389.37	0.00932872
2399.01	0.00884568
2408.66	0.00993097
2418.3	0.0100377
2427.94	0.0104272
2437.58	0.0102007
2447.22	0.0106543
2456.87	0.0109187
2466.51	0.0115914
2476.15	0.011545
2485.79	0.0116557
2495.44	0.012106
2505.08	0.0121164
2514.72	0.0127732
2524.36	0.0129808
2534.01	0.0130458
2543.65	0.0135476
2553.29	0.0135855
2562.93	0.0145138
2572.57	0.014704
2582.22	0.0151323
2591.86	0.015195
2601.5	0.0156456
2611.14	0.0166063
2620.79	0.0173115
2630.43	0.0172387
2640.07	0.017847
2649.71	0.0183914
2659.36	0.0187982
2669	0.0188881
2678.64	0.0195145
2688.28	0.0198958
2697.93	0.0205573
2707.57	0.0214397
2717.21	0.0217037
2726.85	0.0223507
2736.49	0.0233252
2746.14	0.0237017
2755.78	0.0246564
2765.42	0.0251287
2775.06	0.0256208
2784.71	0.0269384
2794.35	0.0278491
2803.99	0.0282752
2813.63	0.0294106
2823.28	0.0304342
2832.92	0.0317649
2842.56	0.0330672
2852.2	0.0352858
2861.84	0.0349677
2871.49	0.0352723
2881.13	0.0366688
2890.77	0.0374113
2900.41	0.0391081
2910.06	0.0410864
2919.7	0.0434435
2929.34	0.0440617
2938.98	0.0427018
2948.62	0.0425748
2958.27	0.0447244
2967.91	0.0454287
2977.55	0.0448252
2987.2	0.0452806
2996.84	0.0466782
3006.48	0.0474429
3016.12	0.0502938
3025.76	0.050836
3035.41	0.0521314
3045.05	0.0540719
3054.69	0.0558078
3064.33	0.0573854
3073.98	0.0598827
3083.62	0.0614834
3093.26	0.0640363
3102.9	0.0662126
3112.55	0.0687178
3122.19	0.0715191
3131.83	0.074446
3141.47	0.0750321
3151.11	0.0772424
3160.76	0.0783009
3170.4	0.0805599
3180.04	0.0833205
3189.68	0.0867604
3199.33	0.0901901
3208.97	0.0946648
3218.61	0.0987769
3228.25	0.10435
3237.9	0.110469
3247.54	0.118525
3257.18	0.129207
3266.82	0.142203
3276.47	0.156746
3286.11	0.1729
3295.75	0.188887
3305.39	0.207681
3315.03	0.231824
3324.68	0.265672
3334.32	0.31601
3343.96	0.389571
3353.6	0.452211
3363.25	0.43107
3372.89	0.378927
3382.53	0.355663
3392.17	0.277267
3401.82	0.218146
3411.46	0.186219
3421.1	0.150514
3430.74	0.121235
3440.39	0.100493
3450.03	0.0855318
3459.67	0.072595
3469.31	0.0596568
3478.95	0.0493641
3488.6	0.0406688
3498.24	0.0352657
3507.88	0.0323016
3517.52	0.028384
3527.17	0.0254679
3536.81	0.0229444
3546.45	0.0210183
3556.09	0.0195941
3565.74	0.0194191
3575.38	0.0179007
3585.02	0.0176166
3594.66	0.0172266
3604.3	0.0161314
3613.95	0.0147724
3623.59	0.0130138
3633.23	0.0135748
3642.87	0.0129362
3652.52	0.0133612
3662.16	0.0129564
3671.8	0.0125665
3681.44	0.0122593
3691.09	0.0128747
3700.73	0.0137185
3710.37	0.0147302
3720.01	0.0141049
3729.66	0.0147272
3739.3	0.0143638
3748.94	0.0164344
3758.58	0.0161946
3768.22	0.0166504
3777.87	0.016514
3787.51	0.0162763
3797.15	0.0166957
3806.79	0.0177684
3816.44	0.0181238
3826.08	0.0170502
3835.72	0.0189057
3845.36	0.0177277
3855.01	0.0190697
3864.65	0.0185837
3874.29	0.0178448
3883.93	0.0182383
3893.57	0.017371
3903.22	0.0187267
3912.86	0.0186835
3922.5	0.0186228
3932.14	0.0176688
3941.79	0.018692
3951.43	0.0188627
3961.07	0.020609
3970.71	0.0202925
3980.36	0.019575
3990	0.0197589
3999.64	0.020164
