Measurement: Infrared, Infrared Data Processed
Mineral: Natrolite
Rruff sample: R050589
Ideal chemistry: Na_2_(Si_3_Al_2_)O_10_2H_2_O
Locality: Mont Saint-Hilaire, Rouville County, Quebec, Canada
Source: Bob Downs
Description: White to colorless prismatic crystals associated with aegirine
Measured chemistry: Na_2.00_(Si_3.00_Al_2.00_)O_10_Â·2H_2_O
x	intensity
399.193	0.153557
408.835	0.209888
418.477	0.201749
428.12	0.116855
437.762	0.0926517
447.404	0.0684512
457.047	0.0490406
466.689	0.0636705
476.331	0.102584
485.974	0.13868
495.616	0.125689
505.258	0.125747
514.901	0.107358
524.543	0.0782898
534.185	0.0802551
543.828	0.0864461
553.47	0.0825098
563.112	0.0830743
572.755	0.112538
582.397	0.112432
592.039	0.118403
601.682	0.14087
611.324	0.141459
620.966	0.155947
630.609	0.121036
640.251	0.082233
649.893	0.0743854
659.536	0.0727601
669.178	0.0717626
678.82	0.0831339
688.463	0.064604
698.105	0.0575853
707.747	0.0461386
717.39	0.0457783
727.032	0.0368494
736.674	0.0253679
746.317	0.0220388
755.959	0.0208454
765.601	0.0202463
775.244	0.0189407
784.886	0.0173505
794.528	0.0174568
804.171	0.0168176
813.813	0.0172749
823.455	0.0186782
833.098	0.0209214
842.74	0.0232168
852.382	0.0275595
862.025	0.0325094
871.667	0.0383466
881.309	0.0454262
890.952	0.0559684
900.594	0.0731713
910.236	0.100211
919.879	0.146671
929.521	0.215811
939.163	0.299764
948.806	0.377414
958.448	0.434785
968.09	0.389152
977.733	0.363098
987.375	0.310239
997.017	0.243921
1006.66	0.177146
1016.3	0.121758
1025.94	0.0879073
1035.59	0.127456
1045.23	0.178099
1054.87	0.189542
1064.51	0.174931
1074.16	0.135335
1083.8	0.141937
1093.44	0.118178
1103.08	0.0918427
1112.72	0.0684626
1122.37	0.0423309
1132.01	0.0299872
1141.65	0.0227965
1151.3	0.0182131
1160.94	0.0143603
1170.58	0.0117985
1180.22	0.00974007
1189.86	0.00827225
1199.51	0.00688118
1209.15	0.0061686
1218.79	0.00511933
1228.43	0.00459548
1238.08	0.00399877
1247.72	0.00362564
1257.36	0.00343028
1267	0.00364727
1276.64	0.00368457
1286.29	0.00367194
1295.93	0.00350547
1305.57	0.00290121
1315.21	0.00306098
1324.86	0.00342141
1334.5	0.00288679
1344.14	0.00265235
1353.78	0.00278553
1363.43	0.00263581
1373.07	0.00291645
1382.71	0.00287152
1392.35	0.0032779
1401.99	0.00327192
1411.64	0.0026298
1421.28	0.00283773
1430.92	0.00292005
1440.57	0.00277636
1450.21	0.00209852
1459.85	0.00207045
1469.49	0.00191938
1479.13	0.00279339
1488.78	0.00304153
1498.42	0.00262595
1508.06	0.00285565
1517.7	0.00328577
1527.35	0.00319385
1536.99	0.0036546
1546.63	0.00391491
1556.27	0.00440882
1565.91	0.00380837
1575.56	0.00406206
1585.2	0.00428176
1594.84	0.00528097
1604.48	0.00628963
1614.13	0.00796082
1623.77	0.0136163
1633.41	0.016592
1643.05	0.0101525
1652.7	0.00651476
1662.34	0.00532917
1671.98	0.00448723
1681.62	0.0038015
1691.27	0.00362014
1700.91	0.00327715
1710.55	0.00262813
1720.19	0.00213576
1729.84	0.0016307
1739.48	0.000183074
1749.12	-0.000246444
1758.76	0.00138131
1768.4	0.00166994
1778.05	0.00181934
1787.69	0.00203591
1797.33	0.00137879
1806.97	0.00136622
1816.62	0.000868383
1826.26	0.000997187
1835.9	0.000753015
1845.54	0.000180047
1855.18	-0.000588665
1864.83	-0.000359842
1874.47	-0.000367539
1884.11	-0.00184355
1893.75	-0.00160565
1903.4	-0.00223183
1913.04	-0.00219857
1922.68	-0.00364203
1932.32	-0.00385973
1941.97	-0.00727161
1951.61	-0.00527275
1961.25	-0.00706417
1970.89	-0.010909
1980.54	-0.00574667
1990.18	-0.00614159
1999.82	-0.00465204
2009.46	-0.00669441
2019.11	-0.00709346
2028.75	-0.00689366
2038.39	-0.00298685
2048.03	-6.92141e-05
2057.67	-0.00200902
2067.32	-0.000646667
2076.96	-0.00274661
2086.6	-0.00326515
2096.24	-0.00216719
2105.89	-0.000423236
2115.53	-0.00241227
2125.17	-0.00182632
2134.81	-0.00467636
2144.45	-0.00211282
2154.1	-0.00927368
2163.74	-0.00155324
2173.38	-0.00462355
2183.02	-0.00334655
2192.67	-0.0027709
2202.31	0.00117739
2211.95	-0.00299746
2221.59	-0.0015484
2231.24	0.00021161
2240.88	0.000634816
2250.52	0.00334528
2260.16	0.0034395
2269.8	0.00327306
2279.45	0.00415607
2289.09	0.00450122
2298.73	0.00406373
2308.38	0.00230855
2318.02	0.00469205
2327.66	0.0037255
2337.3	0.00462192
2346.94	0.0030572
2356.59	0.00367008
2366.23	0.0035231
2375.87	0.00300053
2385.51	0.00320266
2395.16	0.00212993
2404.8	0.00265954
2414.44	0.00378419
2424.08	0.00317113
2433.72	0.00207228
2443.37	0.00320237
2453.01	0.00297063
2462.65	0.00176878
2472.29	0.0027401
2481.94	0.00255013
2491.58	0.00202791
2501.22	0.000532191
2510.86	0.00278818
2520.51	0.00201096
2530.15	0.0025937
2539.79	0.00117314
2549.43	0.00327343
2559.07	0.00317781
2568.72	0.00258717
2578.36	0.00365156
2588	0.00321305
2597.64	0.00468359
2607.29	0.00367338
2616.93	0.00252014
2626.57	0.00380725
2636.21	0.00345679
2645.86	0.00343443
2655.5	0.00385192
2665.14	0.0035313
2674.78	0.00399923
2684.43	0.00347477
2694.07	0.00381463
2703.71	0.00284751
2713.35	0.00307592
2722.99	0.0036315
2732.64	0.00337644
2742.28	0.00378864
2751.92	0.00318754
2761.56	0.00393843
2771.21	0.00427477
2780.85	0.00485834
2790.49	0.00326014
2800.13	0.00380928
2809.78	0.00322863
2819.42	0.00384393
2829.06	0.00550607
2838.7	0.00370318
2848.34	0.00405321
2857.99	0.00442494
2867.63	0.00281037
2877.27	0.00668282
2886.91	0.0028778
2896.56	0.00526397
2906.2	0.00571688
2915.84	0.00428358
2925.48	0.00471499
2935.13	0.00614845
2944.77	0.00483982
2954.41	0.00639827
2964.05	0.00769499
2973.7	0.00902684
2983.34	0.00814212
2992.98	0.00786183
3002.62	0.00953796
3012.26	0.00810885
3021.91	0.0106297
3031.55	0.00964823
3041.19	0.0103053
3050.83	0.0109919
3060.48	0.0111409
3070.12	0.0114107
3079.76	0.0116512
3089.4	0.0134637
3099.05	0.0166471
3108.69	0.0133002
3118.33	0.0123384
3127.97	0.0158633
3137.61	0.01681
3147.26	0.0194596
3156.9	0.0199566
3166.54	0.0235961
3176.18	0.025012
3185.83	0.0250127
3195.47	0.0260195
3205.11	0.0264202
3214.75	0.025384
3224.4	0.0251048
3234.04	0.0260041
3243.68	0.023273
3253.32	0.0247194
3262.97	0.0260419
3272.61	0.0293216
3282.25	0.0328861
3291.89	0.0402577
3301.53	0.0467981
3311.18	0.0598214
3320.82	0.0640279
3330.46	0.0579984
3340.1	0.0493111
3349.75	0.0406764
3359.39	0.034277
3369.03	0.0323724
3378.67	0.0342183
3388.32	0.0290369
3397.96	0.0270522
3407.6	0.028762
3417.24	0.0274755
3426.89	0.025572
3436.53	0.0266684
3446.17	0.0246468
3455.81	0.0246941
3465.45	0.028398
3475.1	0.0257017
3484.74	0.0244242
3494.38	0.0298274
3504.02	0.0299034
3513.67	0.0415034
3523.31	0.0602262
3532.95	0.079701
3542.59	0.0749905
3552.24	0.0563348
3561.88	0.0359409
3571.52	0.0251201
3581.16	0.0190887
3590.8	0.0177414
3600.45	0.0136531
3610.09	0.0108253
3619.73	0.0114448
3629.37	0.0078855
3639.02	0.00555428
3648.66	0.00570598
3658.3	0.00481489
3667.94	0.00204989
3677.59	0.00573593
3687.23	0.000606336
3696.87	0.000231527
3706.51	0.00212986
3716.16	0.00363881
3725.8	0.00224119
3735.44	0.00150698
3745.08	0.00598667
3754.72	-0.000523057
3764.37	0.00362951
3774.01	0.00397911
3783.65	0.00495937
3793.29	0.00242818
3802.94	0.00419656
3812.58	-0.00243315
3822.22	0.00264469
3831.86	0.00518354
3841.51	0.00587829
3851.15	0.00433484
3860.79	0.000426424
3870.43	0.00327017
3880.07	0.00380782
3889.72	0.00548147
3899.36	0.00271308
3909	0.00160799
3918.64	0.00368054
3928.29	0.00376304
3937.93	0.00199228
3947.57	0.00755365
3957.21	0.00483655
3966.86	0.00481393
3976.5	0.00625662
3986.14	0.00580579
3995.78	-2.56847e-05
