Measurement: Infrared, Infrared Data Processed
Mineral: Nitratine
Rruff sample: R050658
Ideal chemistry: NaN^5+^O_3_
Locality: Peru
Source: University of Arizona Mineral Museum
Description: Group of colorless crystals
Measured chemistry: Na_0.92_N_1.00_O_2.96_ ; N not measured but estimated by difference and stoichiometry
x	intensity
399.193	0.00548392
408.835	0.00776223
418.477	0.00697228
428.12	0.00627343
437.762	0.00534512
447.404	0.00632789
457.047	0.00617742
466.689	0.00669161
476.331	0.00695038
485.974	0.00698808
495.616	0.00793849
505.258	0.00794865
514.901	0.00830132
524.543	0.00917944
534.185	0.00926483
543.828	0.00993608
553.47	0.009381
563.112	0.0103909
572.755	0.0109686
582.397	0.0112766
592.039	0.0117726
601.682	0.0118733
611.324	0.0125166
620.966	0.0128358
630.609	0.0132946
640.251	0.0133277
649.893	0.0139128
659.536	0.0143066
669.178	0.0149925
678.82	0.015278
688.463	0.0156602
698.105	0.0163542
707.747	0.0164284
717.39	0.0171509
727.032	0.0216422
736.674	0.0179659
746.317	0.0186123
755.959	0.0193667
765.601	0.0201644
775.244	0.0205402
784.886	0.0216887
794.528	0.021828
804.171	0.0238277
813.813	0.0276602
823.455	0.0349002
833.098	0.180345
842.74	0.0301134
852.382	0.025742
862.025	0.0267595
871.667	0.0279266
881.309	0.0292398
890.952	0.030516
900.594	0.0316123
910.236	0.0326605
919.879	0.0343757
929.521	0.0356677
939.163	0.0367526
948.806	0.0388516
958.448	0.0398384
968.09	0.0414023
977.733	0.0435719
987.375	0.0454383
997.017	0.0481854
1006.66	0.0505944
1016.3	0.0524068
1025.94	0.0551206
1035.59	0.0578161
1045.23	0.0599881
1054.87	0.0625492
1064.51	0.0652247
1074.16	0.0682817
1083.8	0.0719227
1093.44	0.0766687
1103.08	0.0819099
1112.72	0.0871723
1122.37	0.0936615
1132.01	0.100922
1141.65	0.10951
1151.3	0.117559
1160.94	0.126767
1170.58	0.136687
1180.22	0.147455
1189.86	0.158161
1199.51	0.17213
1209.15	0.187288
1218.79	0.202697
1228.43	0.219851
1238.08	0.238509
1247.72	0.258041
1257.36	0.27964
1267	0.301745
1276.64	0.324318
1286.29	0.34616
1295.93	0.368545
1305.57	0.391016
1315.21	0.413302
1324.86	0.431915
1334.5	0.446011
1344.14	0.448815
1353.78	0.40333
1363.43	0.312289
1373.07	0.247061
1382.71	0.209301
1392.35	0.183497
1401.99	0.160996
1411.64	0.141302
1421.28	0.121738
1430.92	0.104796
1440.57	0.0906375
1450.21	0.0842203
1459.85	0.0531358
1469.49	0.0159704
1479.13	0.0115506
1488.78	0.0100087
1498.42	0.00838398
1508.06	0.00676144
1517.7	0.00561533
1527.35	0.00441943
1536.99	0.00433722
1546.63	0.00369675
1556.27	0.00439341
1565.91	0.00386514
1575.56	0.00359179
1585.2	0.00287507
1594.84	0.00290439
1604.48	0.00229937
1614.13	0.00228384
1623.77	0.00234563
1633.41	0.00252319
1643.05	0.00234356
1652.7	0.00334219
1662.34	0.00147953
1671.98	0.00129262
1681.62	0.002223
1691.27	0.00178486
1700.91	0.00272135
1710.55	0.00170017
1720.19	0.00199762
1729.84	0.00217251
1739.48	0.00204036
1749.12	0.00213041
1758.76	0.00248457
1768.4	0.00336193
1778.05	0.00516448
1787.69	0.0414235
1797.33	0.00430118
1806.97	0.00303696
1816.62	0.00319784
1826.26	0.00391012
1835.9	0.00343343
1845.54	0.00422904
1855.18	0.00366257
1864.83	0.00382972
1874.47	0.0045112
1884.11	0.00330406
1893.75	0.00417325
1903.4	0.00417986
1913.04	0.00460103
1922.68	0.00381195
1932.32	0.00352522
1941.97	0.00428739
1951.61	0.00434169
1961.25	0.003384
1970.89	0.00455941
1980.54	0.00434616
1990.18	0.00322976
1999.82	0.00415994
2009.46	0.00114189
2019.11	0.00173915
2028.75	0.00238121
2038.39	0.00650247
2048.03	0.00500929
2057.67	0.00669841
2067.32	0.00550033
2076.96	0.00821369
2086.6	0.00736674
2096.24	0.00891182
2105.89	0.00798354
2115.53	0.00866499
2125.17	0.00699525
2134.81	0.00417298
2144.45	0.00508587
2154.1	0.00116119
2163.74	0.00191336
2173.38	0.00174281
2183.02	0.00238215
2192.67	0.00625351
2202.31	0.00375085
2211.95	0.00522266
2221.59	0.00401
2231.24	0.00533227
2240.88	0.00688277
2250.52	0.00672886
2260.16	0.00726877
2269.8	0.0066556
2279.45	0.00830292
2289.09	0.00939051
2298.73	0.00968937
2308.38	0.00974206
2318.02	0.0097477
2327.66	0.0100446
2337.3	0.0107497
2346.94	0.00976711
2356.59	0.0116995
2366.23	0.0107892
2375.87	0.00991921
2385.51	0.0101327
2395.16	0.00981512
2404.8	0.0110497
2414.44	0.015198
2424.08	0.035068
2433.72	0.0352056
2443.37	0.0316554
2453.01	0.0229465
2462.65	0.0164821
2472.29	0.0157227
2481.94	0.0151223
2491.58	0.012698
2501.22	0.0139838
2510.86	0.0113473
2520.51	0.00798608
2530.15	0.00524626
2539.79	0.00421674
2549.43	0.00427676
2559.07	0.00423326
2568.72	0.00566828
2578.36	0.00426242
2588	0.00534468
2597.64	0.00587192
2607.29	0.00594513
2616.93	0.00627058
2626.57	0.00647388
2636.21	0.00705569
2645.86	0.00783135
2655.5	0.00858611
2665.14	0.00789901
2674.78	0.00836777
2684.43	0.00830683
2694.07	0.00854993
2703.71	0.0088494
2713.35	0.00897725
2722.99	0.0108726
2732.64	0.013293
2742.28	0.0154429
2751.92	0.0169238
2761.56	0.0176512
2771.21	0.0159752
2780.85	0.0145644
2790.49	0.0142819
2800.13	0.0143476
2809.78	0.0152332
2819.42	0.0151956
2829.06	0.0157259
2838.7	0.0156185
2848.34	0.0166995
2857.99	0.0158004
2867.63	0.0125788
2877.27	0.0124132
2886.91	0.0133519
2896.56	0.0128092
2906.2	0.0120824
2915.84	0.0129389
2925.48	0.013083
2935.13	0.0146978
2944.77	0.0130792
2954.41	0.0136645
2964.05	0.0142457
2973.7	0.0150031
2983.34	0.0146761
2992.98	0.0146296
3002.62	0.0151818
3012.26	0.0139614
3021.91	0.014916
3031.55	0.0148316
3041.19	0.0153171
3050.83	0.0161909
3060.48	0.0174352
3070.12	0.0175885
3079.76	0.0160637
3089.4	0.0154282
3099.05	0.015673
3108.69	0.0166213
3118.33	0.0167741
3127.97	0.0164829
3137.61	0.016497
3147.26	0.016162
3156.9	0.0169323
3166.54	0.0175379
3176.18	0.0175298
3185.83	0.0176675
3195.47	0.0201025
3205.11	0.0177736
3214.75	0.0164407
3224.4	0.0165707
3234.04	0.0160058
3243.68	0.0176291
3253.32	0.0199112
3262.97	0.0180785
3272.61	0.0180564
3282.25	0.0173857
3291.89	0.0160601
3301.53	0.0183155
3311.18	0.0179158
3320.82	0.0170063
3330.46	0.0181534
3340.1	0.0176838
3349.75	0.0168135
3359.39	0.0180475
3369.03	0.0176865
3378.67	0.0174145
3388.32	0.0184834
3397.96	0.0184527
3407.6	0.016795
3417.24	0.0170897
3426.89	0.0168517
3436.53	0.0169266
3446.17	0.0165635
3455.81	0.019087
3465.45	0.0163632
3475.1	0.0166868
3484.74	0.0182268
3494.38	0.0171991
3504.02	0.0163347
3513.67	0.0181044
3523.31	0.0165884
3532.95	0.0169711
3542.59	0.0167189
3552.24	0.0182737
3561.88	0.0167323
3571.52	0.0149601
3581.16	0.0152801
3590.8	0.017022
3600.45	0.0170799
3610.09	0.0180968
3619.73	0.0160161
3629.37	0.0191158
3639.02	0.0153155
3648.66	0.0182857
3658.3	0.0177184
3667.94	0.0193249
3677.59	0.020918
3687.23	0.0182579
3696.87	0.0167221
3706.51	0.0177985
3716.16	0.01668
3725.8	0.0163209
3735.44	0.0179795
3745.08	0.0173137
3754.72	0.0145671
3764.37	0.0179486
3774.01	0.0197489
3783.65	0.0156886
3793.29	0.018438
3802.94	0.0205604
3812.58	0.0160188
3822.22	0.0196767
3831.86	0.0177969
3841.51	0.0196145
3851.15	0.0190913
3860.79	0.0227664
3870.43	0.0194167
3880.07	0.0170256
3889.72	0.016007
3899.36	0.0200158
3909	0.0179176
3918.64	0.0199018
3928.29	0.0181679
3937.93	0.0165748
3947.57	0.0202994
3957.21	0.0196365
3966.86	0.0184339
3976.5	0.0181791
3986.14	0.018354
3995.78	0.0175691
