Measurement: Infrared, Infrared Data Processed
Mineral: Norbergite
Rruff sample: R050280
Ideal chemistry: Mg_3_SiO_4_F_2_
Locality: Sterling mine, Ogdensburg, New Jersey, USA
Source: Marcus Origlieri
Description: Brownish-orange granular
Measured chemistry: (Mg_0.993_Fe_0.006_Ca_0.001_)_3_(SiO_4_)(F_0.704_OH_0.296_)_2_
x	intensity
399.193	0.25875
408.835	0.241581
418.477	0.232641
428.12	0.209013
437.762	0.203329
447.404	0.192857
457.047	0.183848
466.689	0.173501
476.331	0.159728
485.974	0.136431
495.616	0.119187
505.258	0.114138
514.901	0.106684
524.543	0.0932916
534.185	0.0815126
543.828	0.0939105
553.47	0.0986783
563.112	0.0954491
572.755	0.0796264
582.397	0.0597682
592.039	0.0533941
601.682	0.0650482
611.324	0.0933909
620.966	0.110156
630.609	0.0981871
640.251	0.0790223
649.893	0.0572172
659.536	0.0438756
669.178	0.0375186
678.82	0.0345303
688.463	0.0351344
698.105	0.03325
707.747	0.0336175
717.39	0.0357457
727.032	0.0408967
736.674	0.0498479
746.317	0.0708932
755.959	0.0859392
765.601	0.0640969
775.244	0.0496364
784.886	0.050636
794.528	0.0552613
804.171	0.0611304
813.813	0.068048
823.455	0.0760002
833.098	0.0905069
842.74	0.119367
852.382	0.17501
862.025	0.203848
871.667	0.247514
881.309	0.278465
890.952	0.265779
900.594	0.271858
910.236	0.249293
919.879	0.226329
929.521	0.196915
939.163	0.176083
948.806	0.169745
958.448	0.175324
968.09	0.167305
977.733	0.162447
987.375	0.17747
997.017	0.172547
1006.66	0.154205
1016.3	0.133805
1025.94	0.117293
1035.59	0.112702
1045.23	0.114893
1054.87	0.124677
1064.51	0.136495
1074.16	0.145105
1083.8	0.152995
1093.44	0.160408
1103.08	0.16278
1112.72	0.147563
1122.37	0.123363
1132.01	0.106564
1141.65	0.0938656
1151.3	0.085875
1160.94	0.0806294
1170.58	0.076394
1180.22	0.0729257
1189.86	0.068791
1199.51	0.0639941
1209.15	0.0590442
1218.79	0.053343
1228.43	0.047399
1238.08	0.0399227
1247.72	0.0317186
1257.36	0.0246636
1267	0.0199639
1276.64	0.01821
1286.29	0.0169228
1295.93	0.0161661
1305.57	0.0152795
1315.21	0.0150783
1324.86	0.0149959
1334.5	0.0149986
1344.14	0.0152211
1353.78	0.0149824
1363.43	0.01517
1373.07	0.0155122
1382.71	0.0158533
1392.35	0.0157233
1401.99	0.015935
1411.64	0.0165176
1421.28	0.0165767
1430.92	0.0173624
1440.57	0.0177273
1450.21	0.0179679
1459.85	0.0185245
1469.49	0.0182039
1479.13	0.0173105
1488.78	0.0170606
1498.42	0.0169317
1508.06	0.0168932
1517.7	0.0163639
1527.35	0.0162448
1536.99	0.0163529
1546.63	0.0166512
1556.27	0.0172952
1565.91	0.0175528
1575.56	0.018657
1585.2	0.0190404
1594.84	0.0196102
1604.48	0.0202917
1614.13	0.0209359
1623.77	0.0216085
1633.41	0.0212297
1643.05	0.0205977
1652.7	0.0204274
1662.34	0.0190604
1671.98	0.018768
1681.62	0.0179905
1691.27	0.0173942
1700.91	0.0174376
1710.55	0.0170217
1720.19	0.0168743
1729.84	0.0169652
1739.48	0.0169737
1749.12	0.0158315
1758.76	0.0158766
1768.4	0.0158589
1778.05	0.015353
1787.69	0.0153179
1797.33	0.014848
1806.97	0.0152671
1816.62	0.0153462
1826.26	0.015857
1835.9	0.0156742
1845.54	0.0155598
1855.18	0.0150372
1864.83	0.0145123
1874.47	0.0157271
1884.11	0.0151238
1893.75	0.0137411
1903.4	0.0135386
1913.04	0.0151612
1922.68	0.0129571
1932.32	0.0138047
1941.97	0.0144241
1951.61	0.0120258
1961.25	0.0069728
1970.89	0.00882924
1980.54	0.0123313
1990.18	0.0123152
1999.82	0.00996472
2009.46	0.0134586
2019.11	0.00765239
2028.75	0.0104582
2038.39	0.0119704
2048.03	0.015656
2057.67	0.0138522
2067.32	0.016161
2076.96	0.0134821
2086.6	0.014682
2096.24	0.0147564
2105.89	0.0145964
2115.53	0.0156059
2125.17	0.0111448
2134.81	0.0123998
2144.45	0.00891675
2154.1	0.00488084
2163.74	0.012631
2173.38	0.00930623
2183.02	0.0109661
2192.67	0.0123728
2202.31	0.00883173
2211.95	0.0119213
2221.59	0.0145103
2231.24	0.0144356
2240.88	0.0159974
2250.52	0.0142264
2260.16	0.0151519
2269.8	0.0150656
2279.45	0.0187986
2289.09	0.0186417
2298.73	0.018573
2308.38	0.0182144
2318.02	0.0196227
2327.66	0.0184562
2337.3	0.0179606
2346.94	0.0182184
2356.59	0.0177517
2366.23	0.0167554
2375.87	0.0174097
2385.51	0.0178869
2395.16	0.0164821
2404.8	0.0178386
2414.44	0.0170149
2424.08	0.0184036
2433.72	0.0175033
2443.37	0.0190685
2453.01	0.0188585
2462.65	0.0180033
2472.29	0.0177016
2481.94	0.0183092
2491.58	0.0195304
2501.22	0.0190528
2510.86	0.0191427
2520.51	0.019386
2530.15	0.0199363
2539.79	0.020108
2549.43	0.0208658
2559.07	0.02036
2568.72	0.0215058
2578.36	0.0202297
2588	0.0206386
2597.64	0.0206711
2607.29	0.0203168
2616.93	0.0215139
2626.57	0.0220734
2636.21	0.021647
2645.86	0.0218653
2655.5	0.0222514
2665.14	0.0215952
2674.78	0.020456
2684.43	0.0209734
2694.07	0.0215662
2703.71	0.0224747
2713.35	0.0220516
2722.99	0.0220961
2732.64	0.022442
2742.28	0.0228214
2751.92	0.0224268
2761.56	0.0224173
2771.21	0.0228818
2780.85	0.0225772
2790.49	0.0223718
2800.13	0.0221766
2809.78	0.0236114
2819.42	0.0220472
2829.06	0.0247477
2838.7	0.0229473
2848.34	0.0231265
2857.99	0.0243662
2867.63	0.0242045
2877.27	0.0248132
2886.91	0.0255112
2896.56	0.0252749
2906.2	0.0251463
2915.84	0.0267552
2925.48	0.0237304
2935.13	0.0240679
2944.77	0.0257357
2954.41	0.0251883
2964.05	0.0232977
2973.7	0.026215
2983.34	0.0272056
2992.98	0.0249524
3002.62	0.0251732
3012.26	0.0250287
3021.91	0.0276301
3031.55	0.0275388
3041.19	0.0267367
3050.83	0.0286937
3060.48	0.0273738
3070.12	0.0306085
3079.76	0.0311412
3089.4	0.0292284
3099.05	0.0304078
3108.69	0.0302201
3118.33	0.0310941
3127.97	0.034665
3137.61	0.0312208
3147.26	0.0325037
3156.9	0.0327741
3166.54	0.0333222
3176.18	0.034037
3185.83	0.0344581
3195.47	0.0350644
3205.11	0.0367979
3214.75	0.0371373
3224.4	0.0365489
3234.04	0.0349682
3243.68	0.0367027
3253.32	0.0358267
3262.97	0.0381281
3272.61	0.0388618
3282.25	0.038771
3291.89	0.0365331
3301.53	0.038405
3311.18	0.0393919
3320.82	0.0384017
3330.46	0.0404653
3340.1	0.0379445
3349.75	0.0386926
3359.39	0.0421155
3369.03	0.0414178
3378.67	0.0392257
3388.32	0.042812
3397.96	0.0387109
3407.6	0.0395567
3417.24	0.0367679
3426.89	0.0430922
3436.53	0.0416833
3446.17	0.0380678
3455.81	0.0373028
3465.45	0.0372079
3475.1	0.0402779
3484.74	0.0361601
3494.38	0.0348477
3504.02	0.0361186
3513.67	0.0376542
3523.31	0.0362457
3532.95	0.0364232
3542.59	0.0381558
3552.24	0.0381265
3561.88	0.0416318
3571.52	0.0459458
3581.16	0.0543352
3590.8	0.0386628
3600.45	0.0303034
3610.09	0.0321656
3619.73	0.0298449
3629.37	0.0333131
3639.02	0.033012
3648.66	0.0295905
3658.3	0.0315261
3667.94	0.0354458
3677.59	0.0371578
3687.23	0.0356871
3696.87	0.0258422
3706.51	0.0255795
3716.16	0.0264543
3725.8	0.0248774
3735.44	0.0254224
3745.08	0.0270625
3754.72	0.0284072
3764.37	0.0268192
3774.01	0.0289099
3783.65	0.0284605
3793.29	0.0268693
3802.94	0.0253324
3812.58	0.0250836
3822.22	0.0245495
3831.86	0.0254177
3841.51	0.0255146
3851.15	0.0306038
3860.79	0.0312635
3870.43	0.0294608
3880.07	0.0246438
3889.72	0.0286481
3899.36	0.0284019
3909	0.0300718
3918.64	0.0297237
3928.29	0.0307003
3937.93	0.0323099
3947.57	0.0295532
3957.21	0.0311191
3966.86	0.0318647
3976.5	0.0281713
3986.14	0.0235467
3995.78	0.0300491
