Measurement: Infrared, Infrared Data Processed
Mineral: Olivenite
Rruff sample: R050532
Ideal chemistry: Cu^2+^_2_As^5+^O_4_(OH)
Locality: Tsumeb mine, Tsumeb, Otavi District, Oshikoto, Namibia
Source: University of Arizona Mineral Museum
Description: Dark green prismatic crystals on botryoidal bayldonite R050670
Measured chemistry: (Cu_0.99_Zn_0.01_)_2_(As_1.00_O_4_)(OH)
x	intensity
399.193	0.186911
408.835	0.136409
418.477	0.194208
428.12	0.254267
437.762	0.333518
447.404	0.372976
457.047	0.309314
466.689	0.268257
476.331	0.323388
485.974	0.367065
495.616	0.324056
505.258	0.275855
514.901	0.338739
524.543	0.436562
534.185	0.420839
543.828	0.346346
553.47	0.233271
563.112	0.141635
572.755	0.0817459
582.397	0.0538521
592.039	0.0468917
601.682	0.0492
611.324	0.0408625
620.966	0.0413665
630.609	0.0559947
640.251	0.0465749
649.893	0.0466644
659.536	0.0523868
669.178	0.0628114
678.82	0.0745915
688.463	0.0905821
698.105	0.111444
707.747	0.136584
717.39	0.169272
727.032	0.210028
736.674	0.261833
746.317	0.322417
755.959	0.384591
765.601	0.417776
775.244	0.413979
784.886	0.397606
794.528	0.357002
804.171	0.317276
813.813	0.296674
823.455	0.2642
833.098	0.221387
842.74	0.214462
852.382	0.203611
862.025	0.175818
871.667	0.151093
881.309	0.122167
890.952	0.090139
900.594	0.0612782
910.236	0.0482961
919.879	0.0536222
929.521	0.0705531
939.163	0.0857622
948.806	0.0804784
958.448	0.0619423
968.09	0.041805
977.733	0.0321268
987.375	0.0197365
997.017	0.0122788
1006.66	0.00957031
1016.3	0.0105167
1025.94	0.0170461
1035.59	0.0240158
1045.23	0.0119691
1054.87	0.00779541
1064.51	0.00794056
1074.16	0.0139773
1083.8	0.0246247
1093.44	0.00879675
1103.08	0.00450061
1112.72	0.00317442
1122.37	0.00305798
1132.01	0.00294578
1141.65	0.00292529
1151.3	0.00254808
1160.94	0.00208232
1170.58	0.00210713
1180.22	0.00218434
1189.86	0.00277714
1199.51	0.00258611
1209.15	0.00280692
1218.79	0.00312489
1228.43	0.00323106
1238.08	0.00316147
1247.72	0.0030102
1257.36	0.00339573
1267	0.00378665
1276.64	0.00390626
1286.29	0.00398162
1295.93	0.00468589
1305.57	0.00496545
1315.21	0.00514094
1324.86	0.00550316
1334.5	0.00531626
1344.14	0.00568612
1353.78	0.00550561
1363.43	0.00560784
1373.07	0.00515649
1382.71	0.00536386
1392.35	0.00611277
1401.99	0.00601003
1411.64	0.00655899
1421.28	0.00620294
1430.92	0.00645473
1440.57	0.00602158
1450.21	0.00564661
1459.85	0.00502843
1469.49	0.00557189
1479.13	0.00721233
1488.78	0.0074879
1498.42	0.00798132
1508.06	0.00813909
1517.7	0.00860288
1527.35	0.00872281
1536.99	0.00856239
1546.63	0.00863428
1556.27	0.00899395
1565.91	0.00939915
1575.56	0.00925416
1585.2	0.00928127
1594.84	0.00949387
1604.48	0.00994425
1614.13	0.0101057
1623.77	0.0102143
1633.41	0.010259
1643.05	0.0101241
1652.7	0.00942452
1662.34	0.00953569
1671.98	0.00959599
1681.62	0.00928669
1691.27	0.00887486
1700.91	0.00775237
1710.55	0.00626261
1720.19	0.00664562
1729.84	0.00667667
1739.48	0.00519821
1749.12	0.00654782
1758.76	0.00839761
1768.4	0.00949431
1778.05	0.00975834
1787.69	0.0101556
1797.33	0.00993812
1806.97	0.00981124
1816.62	0.0102405
1826.26	0.0104065
1835.9	0.0105414
1845.54	0.0103617
1855.18	0.0105139
1864.83	0.0103519
1874.47	0.0106097
1884.11	0.0103806
1893.75	0.0108036
1903.4	0.0110904
1913.04	0.0107622
1922.68	0.0101884
1932.32	0.0106341
1941.97	0.0115836
1951.61	0.0117688
1961.25	0.0112438
1970.89	0.0117933
1980.54	0.0143986
1990.18	0.013412
1999.82	0.0115622
2009.46	0.012034
2019.11	0.0120714
2028.75	0.0122605
2038.39	0.013537
2048.03	0.013975
2057.67	0.0122984
2067.32	0.0112938
2076.96	0.0127731
2086.6	0.0118755
2096.24	0.0122034
2105.89	0.0114112
2115.53	0.0121096
2125.17	0.0119615
2134.81	0.0108089
2144.45	0.0115949
2154.1	0.0128912
2163.74	0.0136525
2173.38	0.0113742
2183.02	0.0144237
2192.67	0.0122023
2202.31	0.0126115
2211.95	0.0126978
2221.59	0.0119228
2231.24	0.0127511
2240.88	0.0128668
2250.52	0.0135801
2260.16	0.0133623
2269.8	0.0139443
2279.45	0.0134222
2289.09	0.0133121
2298.73	0.0131697
2308.38	0.01355
2318.02	0.0132597
2327.66	0.012791
2337.3	0.0129819
2346.94	0.0132456
2356.59	0.0129737
2366.23	0.0124934
2375.87	0.0130982
2385.51	0.0131859
2395.16	0.0128361
2404.8	0.0130277
2414.44	0.0128446
2424.08	0.0130313
2433.72	0.0134975
2443.37	0.0137687
2453.01	0.0138334
2462.65	0.0137708
2472.29	0.013231
2481.94	0.0139367
2491.58	0.0135956
2501.22	0.0136399
2510.86	0.0131823
2520.51	0.0136069
2530.15	0.0139828
2539.79	0.0135644
2549.43	0.0138427
2559.07	0.0141755
2568.72	0.0143426
2578.36	0.013368
2588	0.0140626
2597.64	0.0138634
2607.29	0.0139303
2616.93	0.0129542
2626.57	0.0140356
2636.21	0.0142752
2645.86	0.0139971
2655.5	0.01404
2665.14	0.0135882
2674.78	0.0136702
2684.43	0.0137824
2694.07	0.0138219
2703.71	0.0133968
2713.35	0.0146227
2722.99	0.0140392
2732.64	0.0141474
2742.28	0.0134755
2751.92	0.0146791
2761.56	0.0144482
2771.21	0.0143895
2780.85	0.0146435
2790.49	0.0142163
2800.13	0.0149366
2809.78	0.0152276
2819.42	0.0144192
2829.06	0.0144775
2838.7	0.0147011
2848.34	0.0147171
2857.99	0.0144339
2867.63	0.0141465
2877.27	0.0148433
2886.91	0.0141996
2896.56	0.0143167
2906.2	0.0145988
2915.84	0.0155891
2925.48	0.0145983
2935.13	0.014765
2944.77	0.0141891
2954.41	0.0138563
2964.05	0.0150374
2973.7	0.0141283
2983.34	0.015417
2992.98	0.0155841
3002.62	0.0163024
3012.26	0.0153431
3021.91	0.0165842
3031.55	0.0144522
3041.19	0.0156088
3050.83	0.0150387
3060.48	0.0151369
3070.12	0.0143768
3079.76	0.0157072
3089.4	0.0164188
3099.05	0.0157479
3108.69	0.0153196
3118.33	0.0153643
3127.97	0.0166035
3137.61	0.0157961
3147.26	0.0154158
3156.9	0.0161328
3166.54	0.0155736
3176.18	0.0161822
3185.83	0.0163725
3195.47	0.0157488
3205.11	0.0162277
3214.75	0.016177
3224.4	0.0157508
3234.04	0.0163068
3243.68	0.0166835
3253.32	0.0174008
3262.97	0.01769
3272.61	0.0171007
3282.25	0.0174238
3291.89	0.0178492
3301.53	0.0179637
3311.18	0.0185979
3320.82	0.0184285
3330.46	0.0178738
3340.1	0.0194627
3349.75	0.0185749
3359.39	0.0193852
3369.03	0.0193052
3378.67	0.0195912
3388.32	0.0204064
3397.96	0.0217943
3407.6	0.0243817
3417.24	0.0283071
3426.89	0.031034
3436.53	0.0283903
3446.17	0.0245114
3455.81	0.0214474
3465.45	0.0194149
3475.1	0.0175696
3484.74	0.0169939
3494.38	0.0147596
3504.02	0.0142574
3513.67	0.0143307
3523.31	0.0144712
3532.95	0.0148999
3542.59	0.0138093
3552.24	0.0144224
3561.88	0.0145684
3571.52	0.0138008
3581.16	0.0136131
3590.8	0.0129
3600.45	0.0141519
3610.09	0.014688
3619.73	0.0131575
3629.37	0.0152143
3639.02	0.0137873
3648.66	0.0147124
3658.3	0.0135695
3667.94	0.0145454
3677.59	0.0157406
3687.23	0.0141508
3696.87	0.0153814
3706.51	0.0142808
3716.16	0.0146888
3725.8	0.0150092
3735.44	0.0153615
3745.08	0.0146807
3754.72	0.0159639
3764.37	0.0155683
3774.01	0.0136529
3783.65	0.0154076
3793.29	0.0156058
3802.94	0.0148652
3812.58	0.0157
3822.22	0.0140562
3831.86	0.0150419
3841.51	0.0159497
3851.15	0.015367
3860.79	0.0152675
3870.43	0.0154885
3880.07	0.0153028
3889.72	0.0157505
3899.36	0.0159186
3909	0.0155975
3918.64	0.0156553
3928.29	0.0146208
3937.93	0.0146451
3947.57	0.0160514
3957.21	0.0162329
3966.86	0.0151264
3976.5	0.0141135
3986.14	0.0152344
3995.78	0.0164826
