Measurement: Infrared, Infrared Data Processed
Mineral: Opal
Rruff sample: R060653
Ideal chemistry: SiO_2_<i>n</i>H_2_O
Locality: Brazil
Source: Gemological Institute of America
Description: Colorless to blue tinted glassy amorphous fragment, variety opal-A
Measured chemistry: (Si_0.99_Al_0.01_)_Σ=2_(O_1.99_(OH)_0.01_)_Σ=2_· 0.17H_2_O
x	intensity
399.193	0
408.835	0.162781
418.477	0.171526
428.12	0.183061
437.762	0.195615
447.404	0.199128
457.047	0.200551
466.689	0.184065
476.331	0.144771
485.974	0.100952
495.616	0.0729186
505.258	0.056861
514.901	0.0482356
524.543	0.0464476
534.185	0.0465544
543.828	0.0467754
553.47	0.0448813
563.112	0.0437698
572.755	0.0400562
582.397	0.0362026
592.039	0.0335688
601.682	0.0311151
611.324	0.0290574
620.966	0.0279888
630.609	0.0264209
640.251	0.0262056
649.893	0.0262802
659.536	0.0268203
669.178	0.0270831
678.82	0.027304
688.463	0.0275313
698.105	0.0283219
707.747	0.0290546
717.39	0.0298429
727.032	0.0306636
736.674	0.0316656
746.317	0.0330025
755.959	0.0346113
765.601	0.0379538
775.244	0.0507461
784.886	0.0647441
794.528	0.0680291
804.171	0.0642853
813.813	0.0562763
823.455	0.0459257
833.098	0.0359459
842.74	0.0270297
852.382	0.0223625
862.025	0.0218406
871.667	0.0234752
881.309	0.026325
890.952	0.0300045
900.594	0.0342836
910.236	0.0394369
919.879	0.0441775
929.521	0.0494201
939.163	0.0541951
948.806	0.0577872
958.448	0.0617449
968.09	0.0689553
977.733	0.0831211
987.375	0.106741
997.017	0.139838
1006.66	0.17828
1016.3	0.216597
1025.94	0.250103
1035.59	0.276693
1045.23	0.293329
1054.87	0.300805
1064.51	0.301341
1074.16	0.297207
1083.8	0.288853
1093.44	0.275519
1103.08	0.252608
1112.72	0.217273
1122.37	0.180976
1132.01	0.155468
1141.65	0.137936
1151.3	0.12559
1160.94	0.116502
1170.58	0.108267
1180.22	0.100867
1189.86	0.0941017
1199.51	0.0875552
1209.15	0.08021
1218.79	0.0713394
1228.43	0.0613305
1238.08	0.0492642
1247.72	0.0363149
1257.36	0.0239081
1267	0.0148437
1276.64	0.0105354
1286.29	0.00818864
1295.93	0.00657993
1305.57	0.0053647
1315.21	0.00469208
1324.86	0.00397922
1334.5	0.00346501
1344.14	0.00321692
1353.78	0.00323642
1363.43	0.00315205
1373.07	0.00242552
1382.71	0.00243268
1392.35	0.00248237
1401.99	0.00247079
1411.64	0.00236574
1421.28	0.00236756
1430.92	0.00220451
1440.57	0.00251221
1450.21	0.0024923
1459.85	0.00217327
1469.49	0.00239349
1479.13	0.00269972
1488.78	0.00209872
1498.42	0.0019777
1508.06	0.00244492
1517.7	0.00224048
1527.35	0.00202274
1536.99	0.0019176
1546.63	0.00176851
1556.27	0.0016894
1565.91	0.00183961
1575.56	0.00186772
1585.2	0.00260778
1594.84	0.00322468
1604.48	0.00380946
1614.13	0.00540298
1623.77	0.0062173
1633.41	0.00607595
1643.05	0.00591002
1652.7	0.00487791
1662.34	0.00441223
1671.98	0.0040796
1681.62	0.00329168
1691.27	0.00321799
1700.91	0.00287149
1710.55	0.00277121
1720.19	0.00263283
1729.84	0.00215523
1739.48	0.00137238
1749.12	0.00127059
1758.76	0.00181488
1768.4	0.0015557
1778.05	0.00213156
1787.69	0.00179569
1797.33	0.00178167
1806.97	0.00175442
1816.62	0.00145409
1826.26	0.00165807
1835.9	0.0018408
1845.54	0.00235571
1855.18	0.00230876
1864.83	0.00241627
1874.47	0.00217396
1884.11	0.00203682
1893.75	0.00125254
1903.4	0.00116244
1913.04	0.000575736
1922.68	-0.000824893
1932.32	-0.000789352
1941.97	-0.00128694
1951.61	-0.00225563
1961.25	-0.00337916
1970.89	-0.00513839
1980.54	-0.0031848
1990.18	-0.00324544
1999.82	-0.00584046
2009.46	-0.00769113
2019.11	-0.00575172
2028.75	-0.00690927
2038.39	-0.00677919
2048.03	-0.0042904
2057.67	-0.0045044
2067.32	-0.00534044
2076.96	-0.00443404
2086.6	-0.0036774
2096.24	-0.00383584
2105.89	-0.00359302
2115.53	-0.00474901
2125.17	-0.00494674
2134.81	-0.00909544
2144.45	-0.00974001
2154.1	-0.0149428
2163.74	-0.0118
2173.38	-0.0108292
2183.02	-0.00801006
2192.67	-0.00758815
2202.31	-0.00917013
2211.95	-0.00684978
2221.59	-0.00501543
2231.24	-0.0034445
2240.88	-0.00443751
2250.52	-0.00198605
2260.16	-0.000427657
2269.8	-0.00126965
2279.45	0.000253661
2289.09	-0.00016717
2298.73	0.000764496
2308.38	0.00186571
2318.02	0.00134304
2327.66	0.00197154
2337.3	0.00162756
2346.94	0.00129428
2356.59	0.00128806
2366.23	0.000656493
2375.87	0.000423044
2385.51	0.000887738
2395.16	0.000588688
2404.8	0.00133341
2414.44	0.000100066
2424.08	0.000545019
2433.72	0.000189753
2443.37	0.000859158
2453.01	0.00122842
2462.65	0.000387831
2472.29	0.00148104
2481.94	0.00077752
2491.58	0.00107445
2501.22	0.00200615
2510.86	0.00246324
2520.51	0.00171026
2530.15	0.00330103
2539.79	0.00252984
2549.43	0.00219245
2559.07	0.00233347
2568.72	0.00329461
2578.36	0.00310333
2588	0.00296567
2597.64	0.00384565
2607.29	0.00391428
2616.93	0.00352511
2626.57	0.00436295
2636.21	0.00472335
2645.86	0.00448203
2655.5	0.00435342
2665.14	0.00426314
2674.78	0.00472031
2684.43	0.00338428
2694.07	0.0036167
2703.71	0.00453653
2713.35	0.00372494
2722.99	0.00402278
2732.64	0.00432052
2742.28	0.00399101
2751.92	0.00426957
2761.56	0.00392673
2771.21	0.00397886
2780.85	0.00459598
2790.49	0.0047945
2800.13	0.0045257
2809.78	0.00403351
2819.42	0.00501361
2829.06	0.00392117
2838.7	0.00383896
2848.34	0.00404344
2857.99	0.00419956
2867.63	0.00412174
2877.27	0.00476362
2886.91	0.0052959
2896.56	0.00499134
2906.2	0.00454631
2915.84	0.00312513
2925.48	0.00422914
2935.13	0.0043553
2944.77	0.00506817
2954.41	0.0051173
2964.05	0.00593373
2973.7	0.00548363
2983.34	0.00522577
2992.98	0.00656325
3002.62	0.00633434
3012.26	0.0070459
3021.91	0.0069534
3031.55	0.00766315
3041.19	0.00799711
3050.83	0.00829302
3060.48	0.00929758
3070.12	0.00899306
3079.76	0.0100374
3089.4	0.00911954
3099.05	0.00918026
3108.69	0.0105625
3118.33	0.0107852
3127.97	0.0100016
3137.61	0.0113317
3147.26	0.0106471
3156.9	0.0116468
3166.54	0.0134022
3176.18	0.01264
3185.83	0.0126454
3195.47	0.0125645
3205.11	0.0131175
3214.75	0.013365
3224.4	0.012585
3234.04	0.0141021
3243.68	0.0152195
3253.32	0.0130676
3262.97	0.0146812
3272.61	0.0153241
3282.25	0.0147724
3291.89	0.0149668
3301.53	0.0143759
3311.18	0.0159549
3320.82	0.0159777
3330.46	0.0148456
3340.1	0.0145256
3349.75	0.0149449
3359.39	0.0164944
3369.03	0.0161167
3378.67	0.0162999
3388.32	0.0183745
3397.96	0.0163396
3407.6	0.016506
3417.24	0.01571
3426.89	0.015236
3436.53	0.0168519
3446.17	0.0147902
3455.81	0.0150194
3465.45	0.0144972
3475.1	0.014501
3484.74	0.0145588
3494.38	0.0152519
3504.02	0.0123608
3513.67	0.0128162
3523.31	0.0132289
3532.95	0.0150148
3542.59	0.0155284
3552.24	0.0129248
3561.88	0.0138405
3571.52	0.0102605
3581.16	0.013698
3590.8	0.0113349
3600.45	0.0130885
3610.09	0.0134733
3619.73	0.0110342
3629.37	0.0114034
3639.02	0.0116894
3648.66	0.0101301
3658.3	0.0102161
3667.94	0.0100379
3677.59	0.00815239
3687.23	0.00615962
3696.87	0.00736025
3706.51	0.00582759
3716.16	0.00766147
3725.8	0.00622642
3735.44	0.00455464
3745.08	0.00467285
3754.72	0.00639095
3764.37	0.00553123
3774.01	0.006713
3783.65	0.00595917
3793.29	0.0081186
3802.94	0.00762813
3812.58	0.00755249
3822.22	0.00785178
3831.86	0.00731379
3841.51	0.0077693
3851.15	0.007932
3860.79	0.00910898
3870.43	0.00725059
3880.07	0.00733293
3889.72	0.0107809
3899.36	0.00812638
3909	0.00704683
3918.64	0.00922499
3928.29	0.00721868
3937.93	0.0107065
3947.57	0.00842827
3957.21	0.00851949
3966.86	0.00670479
3976.5	0.00666449
3986.14	0.00968989
3995.78	0.00881705
