Measurement: Infrared, Infrared Data Processed
Mineral: Orthoclase
Rruff sample: R050185
Ideal chemistry: KAlSi_3_O_8_
Locality: Silica Bell Property, west of Hope, British Columbia, Canada
Source: Bob Downs
Description: Cluster of white wedge-shaped crystals, variety adularia
Measured chemistry: (K_0.96_Na_0.04_)Al_1.00_Si_3.00_O_8_
x	intensity
374.123	0.142438
383.765	0.137907
393.407	0.145412
403.05	0.147705
412.692	0.151827
422.334	0.153009
431.976	0.131471
441.619	0.0963028
451.261	0.06424
460.904	0.0488205
470.546	0.0377523
480.188	0.0302048
489.83	0.0248404
499.473	0.0239554
509.115	0.030762
518.758	0.0367146
528.4	0.0533615
538.042	0.0908207
547.684	0.0837737
557.327	0.0804436
566.969	0.0982599
576.611	0.110472
586.254	0.107008
595.896	0.0891289
605.538	0.0712502
615.181	0.0495062
624.823	0.0386817
634.466	0.0462544
644.108	0.052521
653.75	0.031139
663.393	0.0244533
673.035	0.0231791
682.677	0.0255102
692.319	0.0314517
701.962	0.0451411
711.604	0.0581544
721.246	0.065297
730.889	0.062825
740.531	0.0542849
750.173	0.0512936
759.816	0.0501079
769.458	0.0519839
779.101	0.0468608
788.743	0.0393668
798.385	0.0300113
808.028	0.0220677
817.67	0.0185702
827.312	0.0190085
836.955	0.0210809
846.597	0.0244359
856.239	0.029133
865.881	0.0344467
875.524	0.0410545
885.166	0.0486877
894.808	0.058603
904.451	0.0688906
914.093	0.082984
923.736	0.101313
933.378	0.123527
943.02	0.150498
952.663	0.18061
962.305	0.209594
971.947	0.2311
981.59	0.242786
991.232	0.246976
1000.87	0.244863
1010.52	0.236921
1020.16	0.223737
1029.8	0.211511
1039.44	0.19868
1049.09	0.181192
1058.73	0.151652
1068.37	0.122446
1078.01	0.114305
1087.65	0.113224
1097.3	0.113193
1106.94	0.113306
1116.58	0.112904
1126.22	0.113318
1135.87	0.10514
1145.51	0.086403
1155.15	0.0666683
1164.79	0.0501505
1174.44	0.0372687
1184.08	0.0267614
1193.72	0.0182965
1203.36	0.0127718
1213.01	0.00951387
1222.65	0.007463
1232.29	0.00595406
1241.93	0.00482687
1251.58	0.00387599
1261.22	0.00326254
1270.86	0.002542
1280.5	0.00243974
1290.14	0.0023147
1299.79	0.00217311
1309.43	0.0026612
1319.07	0.00312159
1328.71	0.00374095
1338.36	0.00399514
1348	0.00388733
1357.64	0.00338301
1367.28	0.00340611
1376.92	0.00340126
1386.57	0.0032625
1396.21	0.00318203
1405.85	0.00304216
1415.49	0.00347848
1425.14	0.00330312
1434.78	0.00323187
1444.42	0.00264777
1454.06	0.00208301
1463.71	0.00190032
1473.35	0.00186305
1482.99	0.00160128
1492.63	0.00139562
1502.28	0.00111846
1511.92	0.00111196
1521.56	0.00112677
1531.2	0.00127652
1540.85	0.00140482
1550.49	0.00154315
1560.13	0.00217616
1569.77	0.00221891
1579.41	0.00251839
1589.06	0.00240977
1598.7	0.0027912
1608.34	0.0026449
1617.98	0.00267145
1627.63	0.00244992
1637.27	0.0024965
1646.91	0.00256481
1656.55	0.002395
1666.19	0.00191261
1675.84	0.00201946
1685.48	0.00176095
1695.12	0.00191784
1704.77	0.00165304
1714.41	0.00150503
1724.05	0.00129148
1733.69	0.000841612
1743.33	0.000833614
1752.98	0.000914342
1762.62	0.00125982
1772.26	0.00121085
1781.9	0.00153217
1791.55	0.00128381
1801.19	0.000670902
1810.83	0.000921015
1820.47	0.000751502
1830.12	0.000181537
1839.76	0.000340282
1849.4	0.00034548
1859.04	-0.0004021
1868.68	0.000375816
1878.33	9.28645e-05
1887.97	-0.000357719
1897.61	-0.000828532
1907.25	-0.000885301
1916.9	-0.000990446
1926.54	-0.00160727
1936.18	-0.0013296
1945.82	-0.00163929
1955.46	-0.00306902
1965.11	-0.00195982
1974.75	-0.00251927
1984.39	-0.000511396
1994.04	-0.00313843
2003.68	-0.00427457
2013.32	-0.00251166
2022.96	-0.00244583
2032.6	-0.00201769
2042.25	-0.00161207
2051.89	-0.0017763
2061.53	-0.0023119
2071.17	-0.00191902
2080.82	-0.000935956
2090.46	-0.000993948
2100.1	-0.00153184
2109.74	-0.000980672
2119.39	-0.00103486
2129.03	-0.000866918
2138.67	-0.000194186
2148.31	-0.00066877
2157.95	0.00171181
2167.6	0.00333098
2177.24	0.0017262
2186.88	0.000404405
2196.52	0.00215737
2206.17	0.000427416
2215.81	0.000153132
2225.45	-4.62431e-05
2235.09	0.000228084
2244.74	2.00149e-05
2254.38	3.38714e-05
2264.02	0.000261185
2273.66	3.55531e-05
2283.3	0.00170142
2292.95	0.00110324
2302.59	0.00113931
2312.23	0.000529611
2321.87	0.00172289
2331.52	0.000503309
2341.16	0.000183402
2350.8	0.000458125
2360.44	8.88574e-05
2370.09	0.000453057
2379.73	0.000150459
2389.37	0.000671875
2399.01	0.000744276
2408.66	0.00139992
2418.3	0.00101724
2427.94	0.000868608
2437.58	0.00121627
2447.22	0.00169762
2456.87	0.00120316
2466.51	0.00114613
2476.15	0.00165978
2485.79	0.00126616
2495.44	0.00104074
2505.08	0.0010034
2514.72	0.00080482
2524.36	0.00124225
2534.01	0.00114388
2543.65	0.00116387
2553.29	0.0023844
2562.93	0.00156077
2572.57	0.00158776
2582.22	0.0017628
2591.86	0.000974354
2601.5	0.00131692
2611.14	0.00108956
2620.79	0.00169178
2630.43	0.00161547
2640.07	0.00169178
2649.71	0.00108481
2659.36	0.00109304
2669	0.000369758
2678.64	0.000324175
2688.28	0.00121527
2697.93	0.000574768
2707.57	0.00060335
2717.21	0.00108297
2726.85	0.00119203
2736.49	0.000955905
2746.14	0.00108483
2755.78	0.00112708
2765.42	0.000583873
2775.06	0.00133639
2784.71	0.000637643
2794.35	0.000950652
2803.99	0.00153451
2813.63	0.00165215
2823.28	0.00138487
2832.92	0.000799308
2842.56	0.00132999
2852.2	0.00149381
2861.84	0.00129853
2871.49	0.00121071
2881.13	0.00128299
2890.77	0.00148115
2900.41	0.00146463
2910.06	0.00175622
2919.7	0.00159261
2929.34	0.000983249
2938.98	0.00148262
2948.62	0.000755768
2958.27	0.000891722
2967.91	0.00102099
2977.55	0.000861891
2987.2	0.00015643
2996.84	0.000485195
3006.48	0.00140138
3016.12	0.0011107
3025.76	0.000531418
3035.41	0.00168797
3045.05	0.00135041
3054.69	0.00188073
3064.33	0.00207377
3073.98	0.00246036
3083.62	0.0015708
3093.26	0.0021204
3102.9	0.00211455
3112.55	0.00287445
3122.19	0.00255872
3131.83	0.00230863
3141.47	0.00329713
3151.11	0.00281516
3160.76	0.00276135
3170.4	0.00330356
3180.04	0.0039942
3189.68	0.00305465
3199.33	0.00396703
3208.97	0.00353007
3218.61	0.00325667
3228.25	0.00477113
3237.9	0.00460005
3247.54	0.00404197
3257.18	0.00475541
3266.82	0.00549563
3276.47	0.00432819
3286.11	0.00430743
3295.75	0.0045198
3305.39	0.0034468
3315.03	0.00459834
3324.68	0.00427795
3334.32	0.00481749
3343.96	0.00409006
3353.6	0.00431854
3363.25	0.00401183
3372.89	0.0038292
3382.53	0.00389166
3392.17	0.00411772
3401.82	0.00447755
3411.46	0.00372553
3421.1	0.00460241
3430.74	0.00413866
3440.39	0.00447045
3450.03	0.00452615
3459.67	0.00524039
3469.31	0.00443143
3478.95	0.00330375
3488.6	0.00364177
3498.24	0.00370721
3507.88	0.00391441
3517.52	0.00422942
3527.17	0.00344463
3536.81	0.00548288
3546.45	0.00265448
3556.09	0.0020662
3565.74	0.00115493
3575.38	0.00163218
3585.02	0.00167816
3594.66	0.00179911
3604.3	0.00130469
3613.95	0.000251241
3623.59	0.00133791
3633.23	-0.000118048
3642.87	-0.00057178
3652.52	0.000493567
3662.16	-4.19451e-05
3671.8	-0.000972133
3681.44	0.000962553
3691.09	-1.47474e-05
3700.73	3.76658e-05
3710.37	-0.00136737
3720.01	-0.000227939
3729.66	-0.000453799
3739.3	-0.000336898
3748.94	0.000529881
3758.58	-0.00176187
3768.22	0.000229815
3777.87	0.000828903
3787.51	0.000485248
3797.15	-2.01288e-05
3806.79	0.000390173
3816.44	-0.000579184
3826.08	-0.00156046
3835.72	0.000153186
3845.36	-5.24446e-05
3855.01	-0.000111161
3864.65	-0.000253265
3874.29	-4.83463e-05
3883.93	-0.0010201
3893.57	-3.11738e-05
3903.22	-0.000989872
3912.86	-0.000652862
3922.5	-0.00165446
3932.14	-0.00107964
3941.79	-0.00127118
3951.43	-0.00194468
3961.07	0.000229093
3970.71	0.00109778
3980.36	-0.000449644
3990	-0.00182014
3999.64	-0.000916118
