Measurement: Infrared, Infrared Data Processed
Mineral: Orthoclase
Rruff sample: R050367
Ideal chemistry: KAlSi_3_O_8_
Locality: Pazunseik, Mandalay Division, Burma
Source: Marcus Origlieri
Description: Green crystal associated with topaz. Single-crystal structure refinement was conducted to demonstrate that it is orthoclase.
Measured chemistry: (K_0.90_Na_0.10_)_Î£=1_Al_1.00_Si_3.00_O_8_; trace amounts of Fe
x	intensity
374.123	0.368512
383.765	0.274301
393.407	0.255476
403.05	0.278867
412.692	0.289722
422.334	0.280485
431.976	0.222612
441.619	0.157955
451.261	0.110868
460.904	0.0925327
470.546	0.0758149
480.188	0.0594481
489.83	0.0511783
499.473	0.0451959
509.115	0.0487818
518.758	0.0565611
528.4	0.0825164
538.042	0.153812
547.684	0.127353
557.327	0.137649
566.969	0.194733
576.611	0.230593
586.254	0.210048
595.896	0.161042
605.538	0.119816
615.181	0.0846585
624.823	0.0686949
634.466	0.07876
644.108	0.107064
653.75	0.072682
663.393	0.0609254
673.035	0.0585852
682.677	0.0613921
692.319	0.0684737
701.962	0.0869044
711.604	0.108781
721.246	0.122866
730.889	0.114875
740.531	0.102314
750.173	0.100315
759.816	0.0967994
769.458	0.0974026
779.101	0.0872586
788.743	0.0734773
798.385	0.0577249
808.028	0.041514
817.67	0.0353607
827.312	0.0334691
836.955	0.0339171
846.597	0.0360802
856.239	0.0391927
865.881	0.0439453
875.524	0.0505029
885.166	0.0582866
894.808	0.0688906
904.451	0.0827123
914.093	0.103613
923.736	0.135599
933.378	0.185653
943.02	0.261211
952.663	0.361407
962.305	0.466638
971.947	0.543135
981.59	0.580908
991.232	0.585294
1000.87	0.56285
1010.52	0.51714
1020.16	0.466021
1029.8	0.423868
1039.44	0.380719
1049.09	0.332921
1058.73	0.269581
1068.37	0.224928
1078.01	0.211009
1087.65	0.205523
1097.3	0.203787
1106.94	0.204192
1116.58	0.206051
1126.22	0.206052
1135.87	0.185672
1145.51	0.151714
1155.15	0.119258
1164.79	0.0914236
1174.44	0.0682816
1184.08	0.0496916
1193.72	0.0352478
1203.36	0.0253295
1213.01	0.0196069
1222.65	0.0155553
1232.29	0.0125693
1241.93	0.00993375
1251.58	0.00812967
1261.22	0.00629636
1270.86	0.00514893
1280.5	0.00451363
1290.14	0.00363274
1299.79	0.00309662
1309.43	0.00277179
1319.07	0.00254136
1328.71	0.00229103
1338.36	0.00213887
1348	0.00202949
1357.64	0.00180933
1367.28	0.00188486
1376.92	0.00177293
1386.57	0.00160818
1396.21	0.00157303
1405.85	0.00151497
1415.49	0.00133617
1425.14	0.0012747
1434.78	0.0012424
1444.42	0.0010803
1454.06	0.00127755
1463.71	0.00104069
1473.35	0.0011082
1482.99	0.000696181
1492.63	0.000795175
1502.28	0.00073091
1511.92	0.000839738
1521.56	0.00112139
1531.2	0.00104409
1540.85	0.00168777
1550.49	0.00150012
1560.13	0.00220403
1569.77	0.0019945
1579.41	0.00209323
1589.06	0.00229577
1598.7	0.00251925
1608.34	0.00271727
1617.98	0.00351103
1627.63	0.00383755
1637.27	0.00399441
1646.91	0.00378615
1656.55	0.00307791
1666.19	0.00246727
1675.84	0.0023957
1685.48	0.00209115
1695.12	0.00192624
1704.77	0.0018365
1714.41	0.00183274
1724.05	0.00153095
1733.69	0.00145278
1743.33	0.000453063
1752.98	0.000515728
1762.62	0.001039
1772.26	0.00125219
1781.9	0.00104481
1791.55	0.000776586
1801.19	0.00054738
1810.83	0.000184504
1820.47	-1.99872e-05
1830.12	-0.000202589
1839.76	-0.000531088
1849.4	-0.000958791
1859.04	-0.00087788
1868.68	-0.0014663
1878.33	-0.00214341
1887.97	-0.00230591
1897.61	-0.00243507
1907.25	-0.00288306
1916.9	-0.00272969
1926.54	-0.00354913
1936.18	-0.00444458
1945.82	-0.00474317
1955.46	-0.00601421
1965.11	-0.00464409
1974.75	-0.00598906
1984.39	-0.00474799
1994.04	-0.00384903
2003.68	-0.00716886
2013.32	-0.00436953
2022.96	-0.00497684
2032.6	-0.00312642
2042.25	-0.00327828
2051.89	-0.00282585
2061.53	-0.00430927
2071.17	-0.00367555
2080.82	-0.00302943
2090.46	-0.00361332
2100.1	-0.00311547
2109.74	-0.00286573
2119.39	-0.00292594
2129.03	-0.00312116
2138.67	-0.00336418
2148.31	-0.00293582
2157.95	-0.0025819
2167.6	-0.000910953
2177.24	-0.00182166
2186.88	-0.000796499
2196.52	-0.00128856
2206.17	-0.00270932
2215.81	-0.00227913
2225.45	-0.00225468
2235.09	-0.00130724
2244.74	-0.00248182
2254.38	-0.00261582
2264.02	-0.00238656
2273.66	-0.00189099
2283.3	-0.00111173
2292.95	-0.00133919
2302.59	-0.00131762
2312.23	-0.00131708
2321.87	-0.000235982
2331.52	-0.00142617
2341.16	-0.00138246
2350.8	-0.00171361
2360.44	-0.00115114
2370.09	-0.00131107
2379.73	-0.00190981
2389.37	-0.0016698
2399.01	-0.00171746
2408.66	-0.000931438
2418.3	-0.00150094
2427.94	-0.00137447
2437.58	-0.00138733
2447.22	-0.00140421
2456.87	-0.00174752
2466.51	-0.00109204
2476.15	-0.00159109
2485.79	-0.00217385
2495.44	-0.00163353
2505.08	-0.00161137
2514.72	-0.00132229
2524.36	-0.00151458
2534.01	-0.000983092
2543.65	-0.000771448
2553.29	-0.00101293
2562.93	-0.000447535
2572.57	-0.000429967
2582.22	-0.000455624
2591.86	0.000135299
2601.5	-0.000349448
2611.14	-0.000208542
2620.79	-4.54804e-05
2630.43	0.000145573
2640.07	0.000311564
2649.71	0.000461915
2659.36	-6.56859e-05
2669	-8.17434e-05
2678.64	-0.000529921
2688.28	-0.00056857
2697.93	-6.66639e-05
2707.57	-0.000384212
2717.21	0.000107031
2726.85	0.000116276
2736.49	-9.20049e-05
2746.14	0.000102517
2755.78	7.72489e-05
2765.42	0.000285772
2775.06	0.000402321
2784.71	0.000675321
2794.35	0.000394545
2803.99	0.000303856
2813.63	0.000520179
2823.28	0.00102476
2832.92	0.00127906
2842.56	0.000701254
2852.2	0.000789831
2861.84	0.00163718
2871.49	0.00141482
2881.13	0.00197597
2890.77	0.00190628
2900.41	0.00190166
2910.06	0.00214958
2919.7	0.00209669
2929.34	0.00235989
2938.98	0.00214465
2948.62	0.00243393
2958.27	0.00296952
2967.91	0.00269094
2977.55	0.00264805
2987.2	0.00200627
2996.84	0.00273464
3006.48	0.00257215
3016.12	0.00243533
3025.76	0.00282343
3035.41	0.00307343
3045.05	0.00291301
3054.69	0.00370777
3064.33	0.00351403
3073.98	0.00407851
3083.62	0.00453103
3093.26	0.00471152
3102.9	0.00436351
3112.55	0.00510814
3122.19	0.00525432
3131.83	0.00585164
3141.47	0.00580822
3151.11	0.0062445
3160.76	0.00642522
3170.4	0.00658238
3180.04	0.00703021
3189.68	0.00700142
3199.33	0.00782692
3208.97	0.00821285
3218.61	0.00810316
3228.25	0.00810499
3237.9	0.00827189
3247.54	0.00831119
3257.18	0.00920431
3266.82	0.00820984
3276.47	0.00905198
3286.11	0.00872893
3295.75	0.00973596
3305.39	0.00987146
3315.03	0.00886816
3324.68	0.00956929
3334.32	0.00998817
3343.96	0.00948015
3353.6	0.0101061
3363.25	0.00959204
3372.89	0.0100517
3382.53	0.0112228
3392.17	0.00965032
3401.82	0.0105587
3411.46	0.0101109
3421.1	0.0102634
3430.74	0.0105442
3440.39	0.0106419
3450.03	0.00947115
3459.67	0.00897281
3469.31	0.00979543
3478.95	0.00962702
3488.6	0.00968694
3498.24	0.00852432
3507.88	0.00841689
3517.52	0.00911951
3527.17	0.0077831
3536.81	0.00890305
3546.45	0.00790259
3556.09	0.00813703
3565.74	0.00810539
3575.38	0.00675294
3585.02	0.00753604
3594.66	0.00692952
3604.3	0.00621344
3613.95	0.00602641
3623.59	0.00547059
3633.23	0.00461441
3642.87	0.00353668
3652.52	0.00368433
3662.16	0.00295547
3671.8	0.00301944
3681.44	0.00187987
3691.09	0.0018821
3700.73	0.00214251
3710.37	0.00183606
3720.01	0.00125813
3729.66	0.00160239
3739.3	0.00228122
3748.94	0.00257107
3758.58	0.00232874
3768.22	0.00218454
3777.87	0.00176905
3787.51	0.00197309
3797.15	0.00221812
3806.79	0.00236615
3816.44	0.00194751
3826.08	0.00200113
3835.72	0.00242608
3845.36	0.00229765
3855.01	0.00338072
3864.65	0.00284239
3874.29	0.00214291
3883.93	0.00206205
3893.57	0.0024072
3903.22	0.00221065
3912.86	0.00197365
3922.5	0.000728589
3932.14	0.00213431
3941.79	0.00165635
3951.43	0.00201321
3961.07	0.00244927
3970.71	0.00231818
3980.36	0.0016277
3990	0.00259225
3999.64	0.00223702
