Measurement: Infrared, Infrared Data Processed
Mineral: Orthoclase
Rruff sample: R050185
Ideal chemistry: KAlSi_3_O_8_
Locality: Silica Bell Property, west of Hope, British Columbia, Canada
Source: Bob Downs
Description: Cluster of white wedge-shaped crystals, variety adularia
Measured chemistry: (K_0.96_Na_0.04_)Al_1.00_Si_3.00_O_8_
x	intensity
50.1401	0.00355823
52.0686	0.00555027
53.9971	0.00737609
55.9255	0.00863754
57.854	0.00791032
59.7825	0.00990276
61.7109	0.00825292
63.6394	0.00984795
65.5679	0.010077
67.4963	0.010079
69.4248	0.0115494
71.3533	0.0135664
73.2817	0.0149052
75.2102	0.0161792
77.1387	0.0162584
79.0671	0.0174793
80.9956	0.0187949
82.9241	0.0199372
84.8525	0.02116
86.781	0.0221594
88.7095	0.0226832
90.6379	0.0240599
92.5664	0.0239904
94.4948	0.0229843
96.4233	0.0227697
98.3518	0.0236284
100.28	0.023522
102.209	0.022763
104.137	0.022541
106.066	0.0228634
107.994	0.0230312
109.923	0.0237023
111.851	0.0245002
113.779	0.0245844
115.708	0.0233406
117.636	0.022126
119.565	0.0220609
121.493	0.0214134
123.422	0.0211691
125.35	0.0226186
127.279	0.02412
129.207	0.0246102
131.136	0.0253193
133.064	0.0260231
134.993	0.0259526
136.921	0.0254456
138.85	0.0247155
140.778	0.0240702
142.707	0.023816
144.635	0.0234397
146.563	0.022782
148.492	0.0233677
150.42	0.0232876
152.349	0.0219631
154.277	0.0204332
156.206	0.0195224
158.134	0.0187991
160.063	0.0178758
161.991	0.0174699
163.92	0.0169474
165.848	0.0166476
167.777	0.016694
169.705	0.0169023
171.633	0.01688
173.562	0.0170418
175.49	0.0174254
177.419	0.0173206
179.347	0.0174587
181.276	0.0182781
183.204	0.0186367
185.133	0.0187833
187.061	0.0195808
188.99	0.0202633
190.918	0.0206349
192.847	0.0213205
194.775	0.0220841
196.704	0.0223406
198.632	0.0226137
200.56	0.0232229
202.489	0.0239188
204.417	0.0240608
206.346	0.0244834
208.274	0.025066
210.203	0.0251343
212.131	0.0253503
214.06	0.0259246
215.988	0.0267247
217.917	0.0277462
219.845	0.0286846
221.774	0.0294033
223.702	0.0299134
225.631	0.0303733
227.559	0.0307445
229.488	0.0303377
231.416	0.0301597
233.344	0.0304996
235.273	0.0308309
237.201	0.030847
239.13	0.0308893
241.058	0.0309298
242.987	0.0312226
244.915	0.0317516
246.844	0.0322145
248.772	0.0325474
250.701	0.032932
252.629	0.0342597
254.558	0.0351838
256.486	0.0348883
258.414	0.0350361
260.343	0.0356701
262.271	0.0360198
264.2	0.0365278
266.128	0.0373576
268.057	0.0379048
269.985	0.0385368
271.914	0.0392113
273.842	0.0400732
275.771	0.0412485
277.699	0.0422825
279.628	0.0426493
281.556	0.0429403
283.485	0.0430629
285.413	0.0429502
287.341	0.0435389
289.27	0.0442373
291.198	0.0447775
293.127	0.0451401
295.055	0.0458229
296.984	0.046696
298.912	0.0479355
300.841	0.0493655
302.769	0.0509611
304.698	0.0515726
306.626	0.0520674
308.555	0.0525251
310.483	0.0527124
312.411	0.0527166
314.34	0.0528107
316.269	0.0532879
318.197	0.053837
320.125	0.0544482
322.054	0.0551516
323.982	0.0556878
325.911	0.0560556
327.839	0.0563254
329.768	0.0560662
331.696	0.0558867
333.625	0.0556643
335.553	0.0554614
337.482	0.0555477
339.41	0.0555392
341.339	0.0552772
343.267	0.0550895
345.195	0.055365
347.124	0.0559127
349.052	0.0567444
350.981	0.0576424
352.909	0.0583512
354.838	0.0588994
356.766	0.0598842
358.695	0.0607818
360.623	0.0615226
362.552	0.0625391
364.48	0.0630709
366.409	0.0632589
368.337	0.0637967
370.265	0.0642531
372.194	0.0644287
374.122	0.0649746
376.051	0.0654856
377.979	0.065399
379.908	0.0651593
381.836	0.0646547
383.765	0.06364
385.693	0.0626941
387.622	0.0622565
389.55	0.0622392
391.479	0.0622842
393.407	0.0627703
395.336	0.0635248
397.264	0.0641281
399.192	0.064934
401.121	0.0656878
403.049	0.0662226
404.978	0.0665095
406.906	0.0671504
408.835	0.067743
410.763	0.0683159
412.692	0.0690101
414.62	0.0698914
416.549	0.0706407
418.477	0.0716341
420.406	0.0724223
422.334	0.0726604
424.262	0.0723639
426.191	0.0723353
428.12	0.0722207
430.048	0.0716117
431.976	0.0709227
433.905	0.0698956
435.833	0.0682636
437.762	0.0666457
439.69	0.0649754
441.619	0.062864
443.547	0.0608336
445.476	0.0589142
447.404	0.0570583
449.333	0.0548397
451.261	0.0530943
453.19	0.0521245
455.118	0.0510027
457.046	0.0505037
458.975	0.0504818
460.903	0.0505483
462.832	0.0508772
464.76	0.050873
466.689	0.0506282
468.617	0.0505018
470.546	0.0498432
472.474	0.0490753
474.403	0.0483697
476.331	0.0480072
478.26	0.0473788
480.188	0.0467163
482.116	0.0460877
484.045	0.0458164
485.974	0.0459781
487.902	0.0461501
489.83	0.0467292
491.759	0.0471801
493.687	0.0474612
495.616	0.0478295
497.544	0.0484018
499.473	0.0489447
501.401	0.0498445
503.33	0.0508126
505.258	0.0517219
507.187	0.0522758
509.115	0.0528814
511.043	0.053794
512.972	0.0545996
514.9	0.0556661
516.829	0.0565481
518.757	0.0579431
520.686	0.0589616
522.614	0.0595674
524.543	0.0608454
526.471	0.0626504
528.4	0.0640588
530.328	0.0654311
532.257	0.0674054
534.185	0.0693625
536.114	0.0708618
538.042	0.072157
539.971	0.0728548
541.899	0.0728207
543.827	0.0720202
545.756	0.0702692
547.684	0.0683032
549.613	0.067074
551.541	0.0660651
553.47	0.0655742
555.398	0.0654477
557.327	0.0657032
559.255	0.0666429
561.184	0.0678978
563.112	0.0683744
565.041	0.0687947
566.969	0.0698027
568.898	0.0705858
570.826	0.0713789
572.755	0.0723105
574.683	0.0731113
576.611	0.0742824
578.54	0.074902
580.468	0.0748605
582.397	0.0743938
584.325	0.0739861
586.254	0.0736996
588.182	0.072778
590.111	0.0715084
592.039	0.0702532
593.968	0.0683224
595.896	0.0660143
597.824	0.0644951
599.753	0.0627276
601.682	0.0606977
603.61	0.0593471
605.538	0.0578066
607.467	0.0557727
609.395	0.0538477
611.324	0.052091
613.252	0.0506239
615.181	0.0492179
617.109	0.0476675
619.038	0.0467825
620.966	0.0458884
622.894	0.0455116
624.823	0.0464932
626.751	0.048563
628.68	0.051021
630.608	0.0530793
632.537	0.0545074
634.465	0.0555626
636.394	0.0570635
638.322	0.0586838
640.251	0.0598371
642.179	0.0608142
644.108	0.0609169
646.036	0.0601276
647.965	0.0590113
649.893	0.0576996
651.822	0.0566591
653.75	0.0560842
655.678	0.0558805
657.607	0.0559944
659.535	0.0564673
661.464	0.0569492
663.392	0.0574815
665.321	0.0581321
667.249	0.0591398
669.178	0.0598554
671.106	0.0604225
673.035	0.0610548
674.963	0.0621585
676.892	0.0633435
678.82	0.0642672
680.749	0.0647899
682.677	0.0650536
684.606	0.0655765
686.534	0.0661995
688.462	0.066777
690.391	0.0679228
692.319	0.069672
694.248	0.0712491
696.176	0.0728092
698.105	0.0744837
700.033	0.0756214
