Measurement: Infrared, Infrared Data Processed
Mineral: Paravauxite
Rruff sample: R050577
Ideal chemistry: Fe^2+^Al_2_(PO_4_)_2_(OH)_2_8H_2_O
Locality: Llallagua, Bolivia
Source: University of Arizona Mineral Museum
Description: Colorless bladed crystal
Measured chemistry: (Fe^2+^_0.93_Mg_0.04_Mn_0.03_)Al_2_(PO_4_)_2_((OH)_0.93_F_0.07_)_2_Î‡8H_2_O
x	intensity
399.193	0.224501
408.835	0.206376
418.477	0.215785
428.12	0.232027
437.762	0.24595
447.404	0.23769
457.047	0.212629
466.689	0.177631
476.331	0.157359
485.974	0.162665
495.616	0.186367
505.258	0.220225
514.901	0.242041
524.543	0.232853
534.185	0.220635
543.828	0.207956
553.47	0.201588
563.112	0.214431
572.755	0.227381
582.397	0.225769
592.039	0.208291
601.682	0.192369
611.324	0.183943
620.966	0.18529
630.609	0.196738
640.251	0.211945
649.893	0.207106
659.536	0.183306
669.178	0.169738
678.82	0.161026
688.463	0.150661
698.105	0.139252
707.747	0.128373
717.39	0.120543
727.032	0.114386
736.674	0.106991
746.317	0.097388
755.959	0.0879843
765.601	0.0800088
775.244	0.0739044
784.886	0.0701811
794.528	0.0681114
804.171	0.0667912
813.813	0.0663699
823.455	0.0656977
833.098	0.0651928
842.74	0.065408
852.382	0.0661084
862.025	0.0683698
871.667	0.07168
881.309	0.0774797
890.952	0.0852728
900.594	0.095304
910.236	0.108842
919.879	0.127177
929.521	0.150319
939.163	0.17854
948.806	0.209575
958.448	0.234542
968.09	0.253809
977.733	0.288177
987.375	0.345916
997.017	0.37846
1006.66	0.380223
1016.3	0.431988
1025.94	0.43947
1035.59	0.393274
1045.23	0.345461
1054.87	0.294099
1064.51	0.240838
1074.16	0.195962
1083.8	0.156728
1093.44	0.1232
1103.08	0.0964309
1112.72	0.0747845
1122.37	0.0592268
1132.01	0.0495919
1141.65	0.0467654
1151.3	0.0566116
1160.94	0.0475999
1170.58	0.0331359
1180.22	0.0271861
1189.86	0.0241234
1199.51	0.021838
1209.15	0.0200784
1218.79	0.0186167
1228.43	0.0176052
1238.08	0.0168022
1247.72	0.016554
1257.36	0.0162913
1267	0.0161631
1276.64	0.0165227
1286.29	0.0166284
1295.93	0.0169447
1305.57	0.0171675
1315.21	0.0175215
1324.86	0.0178241
1334.5	0.0179669
1344.14	0.0183125
1353.78	0.0185259
1363.43	0.019116
1373.07	0.019533
1382.71	0.0199244
1392.35	0.0205616
1401.99	0.0211768
1411.64	0.0218905
1421.28	0.0226038
1430.92	0.0233034
1440.57	0.0239172
1450.21	0.0247535
1459.85	0.0254079
1469.49	0.0258739
1479.13	0.0263094
1488.78	0.0273601
1498.42	0.0284559
1508.06	0.0298646
1517.7	0.031143
1527.35	0.0328359
1536.99	0.0352508
1546.63	0.0375932
1556.27	0.0406752
1565.91	0.0444163
1575.56	0.0491463
1585.2	0.0541211
1594.84	0.0608038
1604.48	0.0681053
1614.13	0.0739437
1623.77	0.0760172
1633.41	0.0747848
1643.05	0.0727541
1652.7	0.0692048
1662.34	0.062074
1671.98	0.0531327
1681.62	0.0440213
1691.27	0.0361947
1700.91	0.0306292
1710.55	0.0264932
1720.19	0.0238782
1729.84	0.0218343
1739.48	0.0202243
1749.12	0.0192667
1758.76	0.0188056
1768.4	0.0183841
1778.05	0.0182196
1787.69	0.0181596
1797.33	0.0182513
1806.97	0.0178027
1816.62	0.0175822
1826.26	0.0178512
1835.9	0.0183489
1845.54	0.0179722
1855.18	0.0182611
1864.83	0.0183706
1874.47	0.0183198
1884.11	0.0182303
1893.75	0.0187753
1903.4	0.0180717
1913.04	0.018187
1922.68	0.0180753
1932.32	0.0181478
1941.97	0.0164763
1951.61	0.0177153
1961.25	0.0180051
1970.89	0.0168703
1980.54	0.0194948
1990.18	0.0175882
1999.82	0.0188658
2009.46	0.0190469
2019.11	0.0183216
2028.75	0.0180659
2038.39	0.0174874
2048.03	0.0186594
2057.67	0.0192258
2067.32	0.0190515
2076.96	0.0191848
2086.6	0.0192057
2096.24	0.0191612
2105.89	0.019583
2115.53	0.0194067
2125.17	0.0189463
2134.81	0.0180179
2144.45	0.0192179
2154.1	0.0191643
2163.74	0.0239742
2173.38	0.0231246
2183.02	0.025535
2192.67	0.0253516
2202.31	0.0266877
2211.95	0.0276852
2221.59	0.028001
2231.24	0.0279959
2240.88	0.0289696
2250.52	0.0294611
2260.16	0.0295123
2269.8	0.0300892
2279.45	0.0316354
2289.09	0.0314703
2298.73	0.0319931
2308.38	0.0322535
2318.02	0.0329427
2327.66	0.0319243
2337.3	0.0317556
2346.94	0.0313947
2356.59	0.031628
2366.23	0.0314692
2375.87	0.0317462
2385.51	0.0320229
2395.16	0.0322513
2404.8	0.0324169
2414.44	0.0336189
2424.08	0.0337792
2433.72	0.0348262
2443.37	0.0350973
2453.01	0.0356646
2462.65	0.0358357
2472.29	0.0365799
2481.94	0.0369214
2491.58	0.0370546
2501.22	0.0379384
2510.86	0.0388249
2520.51	0.039745
2530.15	0.0407049
2539.79	0.041403
2549.43	0.0416985
2559.07	0.0421779
2568.72	0.0429304
2578.36	0.0437476
2588	0.0448171
2597.64	0.0453782
2607.29	0.0466971
2616.93	0.0478843
2626.57	0.0488458
2636.21	0.0498488
2645.86	0.0506524
2655.5	0.0518407
2665.14	0.0522242
2674.78	0.0536545
2684.43	0.0550991
2694.07	0.0566951
2703.71	0.0578362
2713.35	0.0600477
2722.99	0.0620574
2732.64	0.0639728
2742.28	0.0663302
2751.92	0.0684687
2761.56	0.0707088
2771.21	0.0733268
2780.85	0.0760341
2790.49	0.0785977
2800.13	0.0817245
2809.78	0.0846156
2819.42	0.0874353
2829.06	0.0913663
2838.7	0.0949384
2848.34	0.0983195
2857.99	0.101542
2867.63	0.103965
2877.27	0.107081
2886.91	0.110014
2896.56	0.113244
2906.2	0.116139
2915.84	0.119125
2925.48	0.121597
2935.13	0.121444
2944.77	0.12298
2954.41	0.124995
2964.05	0.126344
2973.7	0.126659
2983.34	0.128347
2992.98	0.130639
3002.62	0.132377
3012.26	0.134287
3021.91	0.136204
3031.55	0.138115
3041.19	0.140483
3050.83	0.142483
3060.48	0.144803
3070.12	0.146107
3079.76	0.148048
3089.4	0.150037
3099.05	0.151825
3108.69	0.15314
3118.33	0.15435
3127.97	0.15541
3137.61	0.155312
3147.26	0.155475
3156.9	0.155233
3166.54	0.154666
3176.18	0.15387
3185.83	0.154477
3195.47	0.15418
3205.11	0.155667
3214.75	0.156328
3224.4	0.159101
3234.04	0.161626
3243.68	0.163867
3253.32	0.166976
3262.97	0.167025
3272.61	0.164911
3282.25	0.160341
3291.89	0.155621
3301.53	0.149874
3311.18	0.144091
3320.82	0.139369
3330.46	0.136076
3340.1	0.133051
3349.75	0.13029
3359.39	0.129349
3369.03	0.128601
3378.67	0.129614
3388.32	0.134757
3397.96	0.144504
3407.6	0.157605
3417.24	0.162436
3426.89	0.149521
3436.53	0.13083
3446.17	0.115524
3455.81	0.105816
3465.45	0.0981772
3475.1	0.0917557
3484.74	0.0870212
3494.38	0.082455
3504.02	0.0762602
3513.67	0.0735738
3523.31	0.0755913
3532.95	0.0819141
3542.59	0.0904639
3552.24	0.0841176
3561.88	0.0666158
3571.52	0.0567538
3581.16	0.0530291
3590.8	0.0509822
3600.45	0.0469081
3610.09	0.0435247
3619.73	0.0309685
3629.37	0.02263
3639.02	0.0169636
3648.66	0.0149902
3658.3	0.0121439
3667.94	0.010566
3677.59	0.00969415
3687.23	0.0087465
3696.87	0.00887603
3706.51	0.0069692
3716.16	0.00729936
3725.8	0.00785002
3735.44	0.00844814
3745.08	0.00816458
3754.72	0.00765266
3764.37	0.00870482
3774.01	0.00850762
3783.65	0.00864581
3793.29	0.00786387
3802.94	0.0082497
3812.58	0.00853857
3822.22	0.00830948
3831.86	0.00879045
3841.51	0.00920027
3851.15	0.00883025
3860.79	0.00906942
3870.43	0.00811435
3880.07	0.00956085
3889.72	0.00926853
3899.36	0.0107602
3909	0.00950482
3918.64	0.0103333
3928.29	0.00926258
3937.93	0.0097231
3947.57	0.0101852
3957.21	0.00979476
3966.86	0.0106419
3976.5	0.0103164
3986.14	0.0114346
3995.78	0.0102736
