Measurement: Infrared, Infrared Data Processed
Mineral: Paralaurionite
Rruff sample: R050271
Ideal chemistry: Pb^2+^Cl(OH)
Locality: Tiger, Pinal County, Arizona, USA
Source: Marcus Origlieri
Description: Greenish-yellow prismatic crystal
Measured chemistry: (Pb_0.96_[box]_0.04_)Cl(OH)
x	intensity
399.193	0.0441666
408.835	0.0325122
418.477	0.0367439
428.12	0.0422848
437.762	0.0475265
447.404	0.0514715
457.047	0.0556875
466.689	0.0597001
476.331	0.0655741
485.974	0.0652792
495.616	0.065795
505.258	0.0695796
514.901	0.074839
524.543	0.0833009
534.185	0.0880488
543.828	0.0947495
553.47	0.111413
563.112	0.132948
572.755	0.160153
582.397	0.197055
592.039	0.243389
601.682	0.293242
611.324	0.328443
620.966	0.332585
630.609	0.304335
640.251	0.264238
649.893	0.221265
659.536	0.194754
669.178	0.185044
678.82	0.179977
688.463	0.169706
698.105	0.149388
707.747	0.122539
717.39	0.0991973
727.032	0.0818366
736.674	0.0687391
746.317	0.0595666
755.959	0.0540832
765.601	0.050378
775.244	0.0490635
784.886	0.047053
794.528	0.0471369
804.171	0.0459076
813.813	0.0415136
823.455	0.0389469
833.098	0.038126
842.74	0.0377351
852.382	0.0397068
862.025	0.0406858
871.667	0.0435991
881.309	0.0422043
890.952	0.0378421
900.594	0.0376852
910.236	0.0402724
919.879	0.0422757
929.521	0.0438613
939.163	0.0433671
948.806	0.0434535
958.448	0.0454316
968.09	0.0477537
977.733	0.0480584
987.375	0.0509339
997.017	0.0545046
1006.66	0.0588503
1016.3	0.0617385
1025.94	0.0609333
1035.59	0.0626164
1045.23	0.0665088
1054.87	0.0705919
1064.51	0.0721665
1074.16	0.074984
1083.8	0.0741587
1093.44	0.0691925
1103.08	0.0654284
1112.72	0.0622169
1122.37	0.0573727
1132.01	0.0545158
1141.65	0.0543795
1151.3	0.0549591
1160.94	0.0563383
1170.58	0.0552225
1180.22	0.0575395
1189.86	0.0608545
1199.51	0.0580962
1209.15	0.0528985
1218.79	0.0529403
1228.43	0.0525137
1238.08	0.0525736
1247.72	0.0526142
1257.36	0.0521631
1267	0.0524333
1276.64	0.0533008
1286.29	0.0546057
1295.93	0.0559174
1305.57	0.0569538
1315.21	0.0577233
1324.86	0.0592836
1334.5	0.0602539
1344.14	0.0618056
1353.78	0.0635875
1363.43	0.0657598
1373.07	0.0675662
1382.71	0.0691095
1392.35	0.0720847
1401.99	0.0762761
1411.64	0.0802938
1421.28	0.0843837
1430.92	0.0850547
1440.57	0.0839988
1450.21	0.0827266
1459.85	0.0798819
1469.49	0.0759199
1479.13	0.0712442
1488.78	0.0689901
1498.42	0.0688261
1508.06	0.06884
1517.7	0.0671145
1527.35	0.0672748
1536.99	0.0674735
1546.63	0.0668341
1556.27	0.0650472
1565.91	0.0636116
1575.56	0.061926
1585.2	0.0610991
1594.84	0.060281
1604.48	0.0601795
1614.13	0.0601452
1623.77	0.0600463
1633.41	0.0594146
1643.05	0.0602025
1652.7	0.0605707
1662.34	0.059553
1671.98	0.0595266
1681.62	0.0591986
1691.27	0.0589942
1700.91	0.0595287
1710.55	0.0597209
1720.19	0.0601065
1729.84	0.0602051
1739.48	0.0601579
1749.12	0.0599409
1758.76	0.0615465
1768.4	0.0636743
1778.05	0.0631565
1787.69	0.0626902
1797.33	0.0631666
1806.97	0.0632378
1816.62	0.0632608
1826.26	0.0648899
1835.9	0.0654288
1845.54	0.0658555
1855.18	0.0669048
1864.83	0.0678729
1874.47	0.0674749
1884.11	0.0682912
1893.75	0.0700175
1903.4	0.0691184
1913.04	0.0711764
1922.68	0.0724909
1932.32	0.0720525
1941.97	0.0743038
1951.61	0.0730352
1961.25	0.0748069
1970.89	0.0748469
1980.54	0.0797211
1990.18	0.079361
1999.82	0.0785251
2009.46	0.076931
2019.11	0.0766284
2028.75	0.0795244
2038.39	0.0820682
2048.03	0.0833911
2057.67	0.0794386
2067.32	0.079952
2076.96	0.0811296
2086.6	0.0824757
2096.24	0.081612
2105.89	0.081856
2115.53	0.083675
2125.17	0.0835701
2134.81	0.0834814
2144.45	0.0821622
2154.1	0.0835707
2163.74	0.0867676
2173.38	0.0830473
2183.02	0.0894799
2192.67	0.0883185
2202.31	0.086997
2211.95	0.0887686
2221.59	0.0935613
2231.24	0.0907323
2240.88	0.092755
2250.52	0.0928581
2260.16	0.093757
2269.8	0.09343
2279.45	0.0961399
2289.09	0.0960658
2298.73	0.0958433
2308.38	0.0970554
2318.02	0.0977246
2327.66	0.0980226
2337.3	0.0979482
2346.94	0.0980226
2356.59	0.099724
2366.23	0.100648
2375.87	0.0990699
2385.51	0.101629
2395.16	0.101404
2404.8	0.100628
2414.44	0.101445
2424.08	0.101844
2433.72	0.102952
2443.37	0.105197
2453.01	0.106792
2462.65	0.108228
2472.29	0.107633
2481.94	0.107838
2491.58	0.107814
2501.22	0.110449
2510.86	0.110698
2520.51	0.110338
2530.15	0.110331
2539.79	0.110076
2549.43	0.113854
2559.07	0.113553
2568.72	0.114375
2578.36	0.115109
2588	0.115357
2597.64	0.115171
2607.29	0.1176
2616.93	0.117506
2626.57	0.118848
2636.21	0.1186
2645.86	0.11948
2655.5	0.120256
2665.14	0.120565
2674.78	0.120238
2684.43	0.121947
2694.07	0.122134
2703.71	0.123599
2713.35	0.123174
2722.99	0.125229
2732.64	0.126021
2742.28	0.127405
2751.92	0.127991
2761.56	0.129762
2771.21	0.129517
2780.85	0.130976
2790.49	0.13189
2800.13	0.132894
2809.78	0.133704
2819.42	0.133399
2829.06	0.135702
2838.7	0.137262
2848.34	0.139364
2857.99	0.140054
2867.63	0.140474
2877.27	0.14244
2886.91	0.143546
2896.56	0.142724
2906.2	0.146721
2915.84	0.147988
2925.48	0.150472
2935.13	0.149105
2944.77	0.148467
2954.41	0.149359
2964.05	0.151152
2973.7	0.146731
2983.34	0.148084
2992.98	0.14769
3002.62	0.149079
3012.26	0.151487
3021.91	0.151657
3031.55	0.152627
3041.19	0.153542
3050.83	0.152713
3060.48	0.156261
3070.12	0.157553
3079.76	0.157886
3089.4	0.160696
3099.05	0.159489
3108.69	0.161549
3118.33	0.162738
3127.97	0.164384
3137.61	0.166071
3147.26	0.167048
3156.9	0.170099
3166.54	0.17176
3176.18	0.174252
3185.83	0.1732
3195.47	0.17773
3205.11	0.177888
3214.75	0.178026
3224.4	0.180871
3234.04	0.184022
3243.68	0.187881
3253.32	0.189787
3262.97	0.190917
3272.61	0.193504
3282.25	0.198437
3291.89	0.197815
3301.53	0.203788
3311.18	0.206334
3320.82	0.207398
3330.46	0.215567
3340.1	0.221255
3349.75	0.225641
3359.39	0.227902
3369.03	0.237418
3378.67	0.245543
3388.32	0.253769
3397.96	0.265079
3407.6	0.273956
3417.24	0.280633
3426.89	0.298217
3436.53	0.311413
3446.17	0.332284
3455.81	0.370056
3465.45	0.401375
3475.1	0.419456
3484.74	0.499683
3494.38	0.678154
3504.02	0.873007
3513.67	0.552581
3523.31	0.255478
3532.95	0.209394
3542.59	0.195629
3552.24	0.174571
3561.88	0.165772
3571.52	0.160625
3581.16	0.166493
3590.8	0.166002
3600.45	0.170212
3610.09	0.171866
3619.73	0.171176
3629.37	0.175052
3639.02	0.174658
3648.66	0.176856
3658.3	0.175541
3667.94	0.177509
3677.59	0.181345
3687.23	0.180976
3696.87	0.177148
3706.51	0.190585
3716.16	0.185575
3725.8	0.189249
3735.44	0.187316
3745.08	0.197278
3754.72	0.194714
3764.37	0.195605
3774.01	0.200702
3783.65	0.197658
3793.29	0.203518
3802.94	0.199917
3812.58	0.202335
3822.22	0.200233
3831.86	0.207498
3841.51	0.204998
3851.15	0.207497
3860.79	0.208314
3870.43	0.208505
3880.07	0.209152
3889.72	0.21211
3899.36	0.209269
3909	0.209378
3918.64	0.215407
3928.29	0.208763
3937.93	0.216057
3947.57	0.220488
3957.21	0.219316
3966.86	0.222521
3976.5	0.222456
3986.14	0.225131
3995.78	0.225706
