Measurement: Infrared, Infrared Data Processed
Mineral: Paravauxite
Rruff sample: R050468
Ideal chemistry: Fe^2+^Al_2_(PO_4_)_2_(OH)_2_8H_2_O
Locality: Llallagua, Bustillos Province, Potosi, Bolivia
Source: University of Arizona Mineral Museum
Description: Colorless aggregate of tabular crystals
Measured chemistry: (Fe^2+^_0.94_Mg_0.05_Mn_0.01_)_Σ=1_Al_2.00_(P_1.00_O_4_)_2_((OH)_0.86_F_0.14_)_Σ=2_·8H_2_O
x	intensity
374.123	0.231757
383.765	0.215905
393.407	0.196881
403.05	0.177321
412.692	0.15571
422.334	0.16247
431.976	0.17273
441.619	0.179098
451.261	0.168535
460.904	0.150001
470.546	0.126429
480.188	0.115509
489.83	0.123359
499.473	0.140884
509.115	0.161895
518.758	0.170401
528.4	0.162918
538.042	0.155532
547.684	0.146024
557.327	0.143276
566.969	0.153912
576.611	0.16508
586.254	0.163453
595.896	0.149897
605.538	0.140487
615.181	0.136235
624.823	0.139313
634.466	0.149282
644.108	0.157627
653.75	0.146652
663.393	0.131528
673.035	0.1247
682.677	0.119327
692.319	0.112608
701.962	0.104974
711.604	0.0982699
721.246	0.0935987
730.889	0.0893624
740.531	0.0828022
750.173	0.0745309
759.816	0.0670663
769.458	0.0612473
779.101	0.0573135
788.743	0.0547117
798.385	0.053582
808.028	0.0529589
817.67	0.0527905
827.312	0.0524102
836.955	0.0526165
846.597	0.0531232
856.239	0.0534624
865.881	0.0548928
875.524	0.0574011
885.166	0.0609141
894.808	0.0661201
904.451	0.0736669
914.093	0.0838197
923.736	0.0976722
933.378	0.115062
943.02	0.136243
952.663	0.156326
962.305	0.168713
971.947	0.1808
981.59	0.206299
991.232	0.245947
1000.87	0.261575
1010.52	0.282136
1020.16	0.319539
1029.8	0.312896
1039.44	0.284023
1049.09	0.252697
1058.73	0.21337
1068.37	0.172717
1078.01	0.138204
1087.65	0.109266
1097.3	0.0855441
1106.94	0.066342
1116.58	0.052333
1126.22	0.0433982
1135.87	0.0390258
1145.51	0.0412639
1155.15	0.0498037
1164.79	0.0336678
1174.44	0.025286
1184.08	0.0217216
1193.72	0.0195994
1203.36	0.0180767
1213.01	0.0168562
1222.65	0.0156121
1232.29	0.0149699
1241.93	0.0145528
1251.58	0.0141611
1261.22	0.0141314
1270.86	0.0142925
1280.5	0.0147014
1290.14	0.014635
1299.79	0.0148258
1309.43	0.0151302
1319.07	0.0151477
1328.71	0.0155121
1338.36	0.0155062
1348	0.0157758
1357.64	0.0160946
1367.28	0.0164648
1376.92	0.0168613
1386.57	0.0171002
1396.21	0.017854
1405.85	0.0184069
1415.49	0.0190619
1425.14	0.0199944
1434.78	0.0203836
1444.42	0.0210556
1454.06	0.0212787
1463.71	0.0215404
1473.35	0.0216814
1482.99	0.0234911
1492.63	0.0240501
1502.28	0.0249754
1511.92	0.0256211
1521.56	0.0257145
1531.2	0.0281645
1540.85	0.0282191
1550.49	0.0319989
1560.13	0.0327218
1569.77	0.0372654
1579.41	0.0417455
1589.06	0.0462996
1598.7	0.05174
1608.34	0.0573709
1617.98	0.0609196
1627.63	0.0623527
1637.27	0.0608626
1646.91	0.0591315
1656.55	0.0556097
1666.19	0.0491663
1675.84	0.0408944
1685.48	0.0325624
1695.12	0.0269375
1704.77	0.0240114
1714.41	0.0210673
1724.05	0.0194535
1733.69	0.0161152
1743.33	0.016468
1752.98	0.0168465
1762.62	0.0173181
1772.26	0.0164561
1781.9	0.0173599
1791.55	0.0169037
1801.19	0.0169179
1810.83	0.0176304
1820.47	0.0177748
1830.12	0.0175269
1839.76	0.0183091
1849.4	0.0181221
1859.04	0.0182957
1868.68	0.0179471
1878.33	0.0185865
1887.97	0.0182819
1897.61	0.0186203
1907.25	0.0180108
1916.9	0.0175311
1926.54	0.0176183
1936.18	0.0172486
1945.82	0.0165551
1955.46	0.0159889
1965.11	0.0153456
1974.75	0.0150628
1984.39	0.0164501
1994.04	0.0154115
2003.68	0.0145957
2013.32	0.0154181
2022.96	0.0142937
2032.6	0.0158737
2042.25	0.0169866
2051.89	0.0170978
2061.53	0.0181148
2071.17	0.0182843
2080.82	0.018813
2090.46	0.0179047
2100.1	0.0187409
2109.74	0.0192322
2119.39	0.0193631
2129.03	0.0183939
2138.67	0.0192479
2148.31	0.01794
2157.95	0.0172679
2167.6	0.0224116
2177.24	0.0205011
2186.88	0.0220115
2196.52	0.0226359
2206.17	0.0219025
2215.81	0.0224092
2225.45	0.0232703
2235.09	0.0233944
2244.74	0.0247622
2254.38	0.024934
2264.02	0.0248455
2273.66	0.0267463
2283.3	0.027712
2292.95	0.0283647
2302.59	0.0284943
2312.23	0.0296571
2321.87	0.030565
2331.52	0.0295473
2341.16	0.029539
2350.8	0.0296935
2360.44	0.0302157
2370.09	0.0297226
2379.73	0.030064
2389.37	0.0296427
2399.01	0.029225
2408.66	0.0304646
2418.3	0.0305709
2427.94	0.0305308
2437.58	0.0310179
2447.22	0.0318785
2456.87	0.0315327
2466.51	0.0319834
2476.15	0.0321579
2485.79	0.0332773
2495.44	0.033151
2505.08	0.0341677
2514.72	0.033663
2524.36	0.0350674
2534.01	0.035661
2543.65	0.035661
2553.29	0.0362778
2562.93	0.0371792
2572.57	0.037059
2582.22	0.0377827
2591.86	0.0386073
2601.5	0.0396126
2611.14	0.0405125
2620.79	0.0412802
2630.43	0.0418832
2640.07	0.043208
2649.71	0.0442875
2659.36	0.0451204
2669	0.0455097
2678.64	0.04697
2688.28	0.0480155
2697.93	0.0494424
2707.57	0.0508963
2717.21	0.0526813
2726.85	0.0542889
2736.49	0.0560904
2746.14	0.05736
2755.78	0.0598077
2765.42	0.0613982
2775.06	0.0637085
2784.71	0.0661852
2794.35	0.068507
2803.99	0.0711948
2813.63	0.0735705
2823.28	0.0757876
2832.92	0.0790588
2842.56	0.0803227
2852.2	0.0806849
2861.84	0.0854648
2871.49	0.0880496
2881.13	0.0909243
2890.77	0.0931234
2900.41	0.0943276
2910.06	0.0951553
2919.7	0.0936455
2929.34	0.0966091
2938.98	0.0997439
2948.62	0.101739
2958.27	0.103002
2967.91	0.104743
2977.55	0.105995
2987.2	0.107785
2996.84	0.108859
3006.48	0.109853
3016.12	0.111138
3025.76	0.112496
3035.41	0.1139
3045.05	0.11485
3054.69	0.116536
3064.33	0.117996
3073.98	0.118888
3083.62	0.120191
3093.26	0.121044
3102.9	0.122444
3112.55	0.123308
3122.19	0.123976
3131.83	0.124985
3141.47	0.125841
3151.11	0.126273
3160.76	0.127518
3170.4	0.127048
3180.04	0.12898
3189.68	0.129655
3199.33	0.13103
3208.97	0.132518
3218.61	0.135503
3228.25	0.138485
3237.9	0.14145
3247.54	0.145257
3257.18	0.147677
3266.82	0.146595
3276.47	0.1442
3286.11	0.140218
3295.75	0.136013
3305.39	0.131192
3315.03	0.126276
3324.68	0.123158
3334.32	0.119559
3343.96	0.118107
3353.6	0.115452
3363.25	0.114976
3372.89	0.115461
3382.53	0.116945
3392.17	0.12306
3401.82	0.132089
3411.46	0.142611
3421.1	0.140689
3430.74	0.122493
3440.39	0.105118
3450.03	0.093937
3459.67	0.0869796
3469.31	0.0819828
3478.95	0.0799822
3488.6	0.0777978
3498.24	0.075716
3507.88	0.0725715
3517.52	0.0731551
3527.17	0.07445
3536.81	0.0839899
3546.45	0.0859116
3556.09	0.0738584
3565.74	0.0591914
3575.38	0.0549662
3585.02	0.0536807
3594.66	0.0515505
3604.3	0.0469653
3613.95	0.039566
3623.59	0.0309221
3633.23	0.0256918
3642.87	0.0219993
3652.52	0.019774
3662.16	0.0179107
3671.8	0.0159286
3681.44	0.0171479
3691.09	0.0145372
3700.73	0.0151599
3710.37	0.0133723
3720.01	0.0144521
3729.66	0.014298
3739.3	0.0151661
3748.94	0.0115322
3758.58	0.0142877
3768.22	0.0148516
3777.87	0.0150374
3787.51	0.0156997
3797.15	0.0153019
3806.79	0.0139658
3816.44	0.013339
3826.08	0.0149977
3835.72	0.0151967
3845.36	0.0155963
3855.01	0.0127022
3864.65	0.0154284
3874.29	0.0173967
3883.93	0.0163697
3893.57	0.017262
3903.22	0.0165462
3912.86	0.0177713
3922.5	0.0171007
3932.14	0.0175299
3941.79	0.0171828
3951.43	0.0182103
3961.07	0.0188261
3970.71	0.0182998
3980.36	0.0175126
3990	0.0171826
3999.64	0.0185547
