Measurement: Infrared, Infrared Data Processed
Mineral: Paradamite
Rruff sample: R050582
Ideal chemistry: Zn^2+^_2_As^5+^O_4_(OH)
Locality: Ojuela mine, Mapimi, Durango, Mexico
Source: University of Arizona Mineral Museum
Description: Groups of tabular pale yellow crystals
Measured chemistry: Zn_2.00_(As_1.00_O_4_)(OH)
x	intensity
399.193	0.107393
408.835	0.139351
418.477	0.201492
428.12	0.240695
437.762	0.235979
447.404	0.261613
457.047	0.251398
466.689	0.216448
476.331	0.202927
485.974	0.165911
495.616	0.178485
505.258	0.175598
514.901	0.15487
524.543	0.134996
534.185	0.104932
543.828	0.0663396
553.47	0.0399852
563.112	0.0299449
572.755	0.0255297
582.397	0.0228642
592.039	0.0215483
601.682	0.0212572
611.324	0.0218016
620.966	0.0229274
630.609	0.0243
640.251	0.0264091
649.893	0.0290489
659.536	0.0322156
669.178	0.0361643
678.82	0.0422819
688.463	0.0504599
698.105	0.0607109
707.747	0.0756064
717.39	0.0952898
727.032	0.125063
736.674	0.165074
746.317	0.217662
755.959	0.287277
765.601	0.366491
775.244	0.42706
784.886	0.447866
794.528	0.465855
804.171	0.42158
813.813	0.348008
823.455	0.312334
833.098	0.276852
842.74	0.218845
852.382	0.170891
862.025	0.138922
871.667	0.136318
881.309	0.123219
890.952	0.0890452
900.594	0.0604907
910.236	0.0445188
919.879	0.0414477
929.521	0.0489429
939.163	0.0698146
948.806	0.0924994
958.448	0.0898866
968.09	0.0617438
977.733	0.0366324
987.375	0.0241666
997.017	0.0183574
1006.66	0.0157423
1016.3	0.0139675
1025.94	0.012463
1035.59	0.0113839
1045.23	0.0105534
1054.87	0.0099908
1064.51	0.00900263
1074.16	0.00861981
1083.8	0.00764693
1093.44	0.00726618
1103.08	0.00670513
1112.72	0.00658326
1122.37	0.0060424
1132.01	0.00597196
1141.65	0.00580317
1151.3	0.00589885
1160.94	0.005691
1170.58	0.00528419
1180.22	0.0054839
1189.86	0.00539204
1199.51	0.00536795
1209.15	0.00506225
1218.79	0.00537502
1228.43	0.00530695
1238.08	0.00558436
1247.72	0.00552264
1257.36	0.0058454
1267	0.00591582
1276.64	0.00689451
1286.29	0.00659206
1295.93	0.00663314
1305.57	0.00664791
1315.21	0.00660843
1324.86	0.00655564
1334.5	0.00654012
1344.14	0.00662967
1353.78	0.00681144
1363.43	0.00718467
1373.07	0.00744293
1382.71	0.00772821
1392.35	0.00819896
1401.99	0.00845066
1411.64	0.00886094
1421.28	0.00867153
1430.92	0.00896068
1440.57	0.0091169
1450.21	0.00917193
1459.85	0.00911788
1469.49	0.00896257
1479.13	0.00885112
1488.78	0.00910441
1498.42	0.00942173
1508.06	0.0096506
1517.7	0.00974364
1527.35	0.0102142
1536.99	0.0109448
1546.63	0.0119569
1556.27	0.0126467
1565.91	0.01246
1575.56	0.0119751
1585.2	0.0124094
1594.84	0.0131291
1604.48	0.0135078
1614.13	0.0138497
1623.77	0.0137093
1633.41	0.0140369
1643.05	0.0142998
1652.7	0.0137497
1662.34	0.0136758
1671.98	0.0133952
1681.62	0.0132466
1691.27	0.0134226
1700.91	0.013032
1710.55	0.012815
1720.19	0.0122981
1729.84	0.0123681
1739.48	0.0114109
1749.12	0.0109458
1758.76	0.0112277
1768.4	0.0113832
1778.05	0.0114033
1787.69	0.0111967
1797.33	0.0112929
1806.97	0.0113768
1816.62	0.0111445
1826.26	0.0119546
1835.9	0.0121678
1845.54	0.0122969
1855.18	0.0124618
1864.83	0.0123831
1874.47	0.0121419
1884.11	0.0120585
1893.75	0.0120697
1903.4	0.0116648
1913.04	0.0114522
1922.68	0.0114934
1932.32	0.0114886
1941.97	0.0117597
1951.61	0.011966
1961.25	0.0125075
1970.89	0.0131005
1980.54	0.0165525
1990.18	0.0144855
1999.82	0.0140991
2009.46	0.016058
2019.11	0.0147255
2028.75	0.0148684
2038.39	0.0165447
2048.03	0.0167307
2057.67	0.0160355
2067.32	0.0160904
2076.96	0.016195
2086.6	0.0165183
2096.24	0.0152579
2105.89	0.016249
2115.53	0.015674
2125.17	0.0145204
2134.81	0.0128078
2144.45	0.0134313
2154.1	0.0116554
2163.74	0.0187185
2173.38	0.0162188
2183.02	0.0171043
2192.67	0.016684
2202.31	0.0168855
2211.95	0.01704
2221.59	0.0165527
2231.24	0.017676
2240.88	0.0177488
2250.52	0.017769
2260.16	0.0184333
2269.8	0.0183631
2279.45	0.0192487
2289.09	0.0197834
2298.73	0.0189199
2308.38	0.0192964
2318.02	0.0193942
2327.66	0.0181516
2337.3	0.0177123
2346.94	0.0180901
2356.59	0.0175721
2366.23	0.0167689
2375.87	0.0180134
2385.51	0.018395
2395.16	0.0187367
2404.8	0.0183555
2414.44	0.0191242
2424.08	0.0189648
2433.72	0.0191716
2443.37	0.0199537
2453.01	0.0203938
2462.65	0.0199507
2472.29	0.0202399
2481.94	0.020113
2491.58	0.0205731
2501.22	0.0208265
2510.86	0.0211146
2520.51	0.0207947
2530.15	0.0210789
2539.79	0.0210647
2549.43	0.0216049
2559.07	0.0217741
2568.72	0.0223002
2578.36	0.0221963
2588	0.0224805
2597.64	0.0231667
2607.29	0.0231747
2616.93	0.0237247
2626.57	0.0237687
2636.21	0.0240006
2645.86	0.0242176
2655.5	0.0238375
2665.14	0.0233636
2674.78	0.023234
2684.43	0.023319
2694.07	0.0238762
2703.71	0.0239805
2713.35	0.0239883
2722.99	0.0242736
2732.64	0.0246935
2742.28	0.0247996
2751.92	0.0252027
2761.56	0.0252576
2771.21	0.0255321
2780.85	0.0258734
2790.49	0.026035
2800.13	0.0262676
2809.78	0.026627
2819.42	0.0272797
2829.06	0.0270056
2838.7	0.0273613
2848.34	0.0281454
2857.99	0.0283612
2867.63	0.0283678
2877.27	0.0284088
2886.91	0.0290844
2896.56	0.0295885
2906.2	0.0304883
2915.84	0.0307245
2925.48	0.0313356
2935.13	0.0303137
2944.77	0.0302522
2954.41	0.0306392
2964.05	0.0310094
2973.7	0.0309729
2983.34	0.0308804
2992.98	0.0311124
3002.62	0.0315083
3012.26	0.0320823
3021.91	0.0317475
3031.55	0.0322699
3041.19	0.0326852
3050.83	0.0333649
3060.48	0.0333899
3070.12	0.0338686
3079.76	0.03452
3089.4	0.0347485
3099.05	0.0354553
3108.69	0.0355597
3118.33	0.0362928
3127.97	0.036652
3137.61	0.037146
3147.26	0.0377109
3156.9	0.0387136
3166.54	0.0393613
3176.18	0.0393104
3185.83	0.0404177
3195.47	0.0408419
3205.11	0.0411187
3214.75	0.0419061
3224.4	0.0432019
3234.04	0.043563
3243.68	0.0445979
3253.32	0.0458122
3262.97	0.0466915
3272.61	0.0477826
3282.25	0.0489538
3291.89	0.0512311
3301.53	0.0528108
3311.18	0.0541172
3320.82	0.056814
3330.46	0.0604107
3340.1	0.0654396
3349.75	0.0703499
3359.39	0.0745753
3369.03	0.082613
3378.67	0.101161
3388.32	0.138431
3397.96	0.199467
3407.6	0.209269
3417.24	0.118519
3426.89	0.0657707
3436.53	0.048913
3446.17	0.0440133
3455.81	0.0432473
3465.45	0.0383145
3475.1	0.0363852
3484.74	0.0341934
3494.38	0.032239
3504.02	0.0322413
3513.67	0.0317242
3523.31	0.0315988
3532.95	0.0313571
3542.59	0.0311895
3552.24	0.0301703
3561.88	0.0299993
3571.52	0.0296163
3581.16	0.0285185
3590.8	0.0287866
3600.45	0.0283938
3610.09	0.0282472
3619.73	0.0287236
3629.37	0.027607
3639.02	0.0282146
3648.66	0.0279782
3658.3	0.0289861
3667.94	0.0289529
3677.59	0.0292938
3687.23	0.0300513
3696.87	0.0292091
3706.51	0.0302017
3716.16	0.0307748
3725.8	0.0311864
3735.44	0.0312945
3745.08	0.0305796
3754.72	0.0304054
3764.37	0.0317253
3774.01	0.0314722
3783.65	0.0316275
3793.29	0.0321954
3802.94	0.0322451
3812.58	0.0319802
3822.22	0.0320109
3831.86	0.0318224
3841.51	0.0320598
3851.15	0.032191
3860.79	0.0324397
3870.43	0.0326888
3880.07	0.0324252
3889.72	0.0319727
3899.36	0.0336793
3909	0.0323763
3918.64	0.0335575
3928.29	0.0330181
3937.93	0.0322522
3947.57	0.0326714
3957.21	0.0332327
3966.86	0.0337496
3976.5	0.0344962
3986.14	0.0330369
3995.78	0.0345713
