Measurement: Infrared, Infrared Data Processed
Mineral: Pargasite
Rruff sample: R060072
Ideal chemistry: NaCa_2_(Mg_4_Al)(Si_6_Al_2_)O_22_(OH)_2_
Locality: Pein Pyit, Mogok, Burma
Source: Marcus Origlieri
Description: Pale green prismatic crystal embedded in calcite
Measured chemistry: (Na_0.81_K_0.19_)_Σ=1_(Ca_1.90_Na_0.10_)_Σ=2_(Mg_3.46_Al_0.45_Fe^2+^_0.05_Ti_0.04_)_Σ=4_Al_1.00_(Si_5.57_Al_2.43_)_Σ=8_O_22_(OH)_2_
x	intensity
399.193	0.316853
408.835	0.310746
418.477	0.289594
428.12	0.298783
437.762	0.332733
447.404	0.333211
457.047	0.311695
466.689	0.282702
476.331	0.249863
485.974	0.228207
495.616	0.210033
505.258	0.194804
514.901	0.195168
524.543	0.190356
534.185	0.169178
543.828	0.145313
553.47	0.124938
563.112	0.101557
572.755	0.0784693
582.397	0.0610863
592.039	0.0535072
601.682	0.0540867
611.324	0.0550405
620.966	0.0581683
630.609	0.0651402
640.251	0.0725154
649.893	0.072702
659.536	0.0735226
669.178	0.0794536
678.82	0.0937892
688.463	0.0907636
698.105	0.0839436
707.747	0.0787889
717.39	0.0709531
727.032	0.0721549
736.674	0.0765695
746.317	0.0776666
755.959	0.0795065
765.601	0.0861065
775.244	0.088039
784.886	0.0948032
794.528	0.112276
804.171	0.131836
813.813	0.142884
823.455	0.145123
833.098	0.160414
842.74	0.189201
852.382	0.218317
862.025	0.240593
871.667	0.253474
881.309	0.254719
890.952	0.266334
900.594	0.286822
910.236	0.305213
919.879	0.322121
929.521	0.347201
939.163	0.348777
948.806	0.337655
958.448	0.32464
968.09	0.308471
977.733	0.284577
987.375	0.249389
997.017	0.209359
1006.66	0.176055
1016.3	0.156179
1025.94	0.146648
1035.59	0.138445
1045.23	0.13258
1054.87	0.123902
1064.51	0.107915
1074.16	0.0903603
1083.8	0.0751661
1093.44	0.0615996
1103.08	0.049454
1112.72	0.0363546
1122.37	0.0215818
1132.01	0.0130937
1141.65	0.00991393
1151.3	0.00780201
1160.94	0.00636565
1170.58	0.00540341
1180.22	0.00439651
1189.86	0.00366622
1199.51	0.00293983
1209.15	0.00265996
1218.79	0.00234789
1228.43	0.0022568
1238.08	0.00201922
1247.72	0.0021217
1257.36	0.00190673
1267	0.00202996
1276.64	0.00228049
1286.29	0.00249658
1295.93	0.00239473
1305.57	0.00215964
1315.21	0.00238016
1324.86	0.00237549
1334.5	0.00239402
1344.14	0.00261346
1353.78	0.00282686
1363.43	0.00346191
1373.07	0.00418867
1382.71	0.00500379
1392.35	0.00634015
1401.99	0.00810895
1411.64	0.0100723
1421.28	0.0116508
1430.92	0.0129558
1440.57	0.01358
1450.21	0.0136096
1459.85	0.013476
1469.49	0.0126771
1479.13	0.011944
1488.78	0.0110803
1498.42	0.0102177
1508.06	0.00926037
1517.7	0.00813149
1527.35	0.007313
1536.99	0.00661453
1546.63	0.00627658
1556.27	0.00602276
1565.91	0.00563992
1575.56	0.00570721
1585.2	0.00522403
1594.84	0.00525531
1604.48	0.00521407
1614.13	0.00537146
1623.77	0.00541477
1633.41	0.00566703
1643.05	0.00576475
1652.7	0.006169
1662.34	0.0052145
1671.98	0.00531464
1681.62	0.00509604
1691.27	0.00468072
1700.91	0.00497628
1710.55	0.00426969
1720.19	0.00392794
1729.84	0.0036337
1739.48	0.00315692
1749.12	0.00279042
1758.76	0.00264102
1768.4	0.00294391
1778.05	0.00257147
1787.69	0.00260262
1797.33	0.00260648
1806.97	0.00263076
1816.62	0.00177656
1826.26	0.00227658
1835.9	0.0018994
1845.54	0.00180296
1855.18	0.00181601
1864.83	0.00185629
1874.47	0.00158575
1884.11	0.000945658
1893.75	0.00160309
1903.4	0.000537785
1913.04	0.000802101
1922.68	0.000387926
1932.32	0.000387188
1941.97	-0.000130968
1951.61	0.000482414
1961.25	-0.00104959
1970.89	-0.000356824
1980.54	0.00162364
1990.18	0.000966543
1999.82	-1.63219e-05
2009.46	0.00179467
2019.11	0.000526384
2028.75	0.00155568
2038.39	0.00246371
2048.03	0.00271037
2057.67	0.00278925
2067.32	0.00235198
2076.96	0.00333974
2086.6	0.00341217
2096.24	0.00233038
2105.89	0.00291725
2115.53	0.00290575
2125.17	0.00221051
2134.81	0.000719609
2144.45	0.0011361
2154.1	0.00116653
2163.74	0.0078601
2173.38	0.00386892
2183.02	0.00630918
2192.67	0.00392166
2202.31	0.00648593
2211.95	0.00589966
2221.59	0.00570337
2231.24	0.00551378
2240.88	0.00670088
2250.52	0.0065819
2260.16	0.00687312
2269.8	0.0072155
2279.45	0.00719028
2289.09	0.00714435
2298.73	0.00683618
2308.38	0.00641897
2318.02	0.00722165
2327.66	0.00633637
2337.3	0.00616636
2346.94	0.0061107
2356.59	0.00622146
2366.23	0.00592011
2375.87	0.00560379
2385.51	0.0059564
2395.16	0.00568733
2404.8	0.00537528
2414.44	0.00629121
2424.08	0.00606372
2433.72	0.00652884
2443.37	0.00686244
2453.01	0.00707482
2462.65	0.00671495
2472.29	0.00691453
2481.94	0.00645909
2491.58	0.0064353
2501.22	0.00713245
2510.86	0.00681217
2520.51	0.00688769
2530.15	0.00709561
2539.79	0.00651211
2549.43	0.00748333
2559.07	0.00737492
2568.72	0.0071878
2578.36	0.00769237
2588	0.00773818
2597.64	0.00831333
2607.29	0.00838356
2616.93	0.00823914
2626.57	0.00828874
2636.21	0.00862411
2645.86	0.00862973
2655.5	0.00866398
2665.14	0.00784001
2674.78	0.00794516
2684.43	0.00803815
2694.07	0.00819545
2703.71	0.00813237
2713.35	0.00802121
2722.99	0.00824591
2732.64	0.0083896
2742.28	0.00847061
2751.92	0.00848705
2761.56	0.00881242
2771.21	0.00884873
2780.85	0.00889842
2790.49	0.00927431
2800.13	0.00958899
2809.78	0.00959562
2819.42	0.00941822
2829.06	0.00968422
2838.7	0.00983392
2848.34	0.00956616
2857.99	0.00936437
2867.63	0.0096109
2877.27	0.00991358
2886.91	0.0101231
2896.56	0.0102263
2906.2	0.0109962
2915.84	0.0109131
2925.48	0.0105591
2935.13	0.0107778
2944.77	0.0103292
2954.41	0.0110031
2964.05	0.0110938
2973.7	0.0110077
2983.34	0.0106823
2992.98	0.0106403
3002.62	0.0104135
3012.26	0.0107647
3021.91	0.0107272
3031.55	0.0117207
3041.19	0.011136
3050.83	0.0118747
3060.48	0.0120281
3070.12	0.0117384
3079.76	0.012424
3089.4	0.012565
3099.05	0.0125986
3108.69	0.0129649
3118.33	0.0129911
3127.97	0.0138313
3137.61	0.0139427
3147.26	0.0136844
3156.9	0.0152694
3166.54	0.0149106
3176.18	0.0146142
3185.83	0.0146204
3195.47	0.0152701
3205.11	0.0146545
3214.75	0.0158293
3224.4	0.0162041
3234.04	0.0159527
3243.68	0.0156359
3253.32	0.0160958
3262.97	0.0162373
3272.61	0.0158329
3282.25	0.0163975
3291.89	0.0168641
3301.53	0.0166882
3311.18	0.0166022
3320.82	0.0167831
3330.46	0.0166218
3340.1	0.0173125
3349.75	0.0168942
3359.39	0.0176621
3369.03	0.0176274
3378.67	0.0166698
3388.32	0.0174505
3397.96	0.0169083
3407.6	0.0176608
3417.24	0.0170004
3426.89	0.0169517
3436.53	0.0168486
3446.17	0.016246
3455.81	0.0168393
3465.45	0.0157994
3475.1	0.0169482
3484.74	0.0160755
3494.38	0.0158692
3504.02	0.0161653
3513.67	0.0156496
3523.31	0.0160815
3532.95	0.0154116
3542.59	0.0156471
3552.24	0.015018
3561.88	0.0149901
3571.52	0.0136109
3581.16	0.0142407
3590.8	0.0147929
3600.45	0.0146268
3610.09	0.0138393
3619.73	0.0133632
3629.37	0.0138645
3639.02	0.0137039
3648.66	0.0132762
3658.3	0.0125737
3667.94	0.0130755
3677.59	0.0137701
3687.23	0.0155634
3696.87	0.0150989
3706.51	0.0147417
3716.16	0.0130127
3725.8	0.0109331
3735.44	0.0113254
3745.08	0.0110991
3754.72	0.0107785
3764.37	0.0101402
3774.01	0.00979658
3783.65	0.0103674
3793.29	0.010099
3802.94	0.0103706
3812.58	0.0103235
3822.22	0.0112474
3831.86	0.0103283
3841.51	0.0106915
3851.15	0.0100471
3860.79	0.00976391
3870.43	0.0101264
3880.07	0.0108966
3889.72	0.0112798
3899.36	0.0105424
3909	0.00979241
3918.64	0.0103756
3928.29	0.0105017
3937.93	0.0103899
3947.57	0.0107083
3957.21	0.0100993
3966.86	0.0112054
3976.5	0.0108634
3986.14	0.0111646
3995.78	0.0105274
