Measurement: Infrared, Infrared Data Processed
Mineral: Pargasite
Rruff sample: R050321
Ideal chemistry: NaCa_2_(Mg_4_Al)(Si_6_Al_2_)O_22_(OH)_2_
Locality: Soper River, near Kimmirut, Baffin Island, Nunavut, Canada
Source: Frank Hawthorne
Description: Greenish brown transparent fragment
Measured chemistry: (Na_0.77_K_0.23_)(Ca_1.90_Na_0.10_)_=2_Mg_4.00_(Al_0.58_Fe^3+^_0.07_Ti_0.05_Mg_0.30_)(Si_6.24_Al_1.76_)_=8_O_22_((OH)_0.69_F_0.31_)_2_
x	intensity
399.193	0.23666
408.835	0.236965
418.477	0.234819
428.12	0.242146
437.762	0.257448
447.404	0.251543
457.047	0.244613
466.689	0.225617
476.331	0.198044
485.974	0.177384
495.616	0.170312
505.258	0.171767
514.901	0.159245
524.543	0.147412
534.185	0.132238
543.828	0.111257
553.47	0.0878837
563.112	0.067514
572.755	0.0512284
582.397	0.0422122
592.039	0.0396393
601.682	0.0423454
611.324	0.0468525
620.966	0.0509773
630.609	0.0574834
640.251	0.0683054
649.893	0.0725923
659.536	0.0793235
669.178	0.0783973
678.82	0.0791113
688.463	0.0750315
698.105	0.0704788
707.747	0.0621661
717.39	0.0567221
727.032	0.0658609
736.674	0.0739067
746.317	0.0622926
755.959	0.0596715
765.601	0.0643495
775.244	0.0743161
784.886	0.0902812
794.528	0.108896
804.171	0.121712
813.813	0.121036
823.455	0.116242
833.098	0.125067
842.74	0.152002
852.382	0.184909
862.025	0.213205
871.667	0.23669
881.309	0.277133
890.952	0.309795
900.594	0.322857
910.236	0.328887
919.879	0.321594
929.521	0.317768
939.163	0.30903
948.806	0.291317
958.448	0.275718
968.09	0.264789
977.733	0.24362
987.375	0.211604
997.017	0.179141
1006.66	0.153828
1016.3	0.141492
1025.94	0.140543
1035.59	0.143329
1045.23	0.147039
1054.87	0.140792
1064.51	0.117994
1074.16	0.0935725
1083.8	0.0741423
1093.44	0.0622196
1103.08	0.0556291
1112.72	0.0481807
1122.37	0.0332863
1132.01	0.0192905
1141.65	0.0109704
1151.3	0.00737268
1160.94	0.00522605
1170.58	0.00447194
1180.22	0.00373028
1189.86	0.00289118
1199.51	0.00268521
1209.15	0.00234601
1218.79	0.00254851
1228.43	0.00223581
1238.08	0.00204232
1247.72	0.002282
1257.36	0.00253723
1267	0.00235373
1276.64	0.00204289
1286.29	0.00239465
1295.93	0.00221595
1305.57	0.00211632
1315.21	0.00226249
1324.86	0.00223619
1334.5	0.00306497
1344.14	0.00303066
1353.78	0.00385388
1363.43	0.0045039
1373.07	0.00490674
1382.71	0.00475668
1392.35	0.00526844
1401.99	0.00575176
1411.64	0.00618472
1421.28	0.00626769
1430.92	0.00600102
1440.57	0.00608561
1450.21	0.00580177
1459.85	0.00518101
1469.49	0.0049687
1479.13	0.00417288
1488.78	0.00428246
1498.42	0.00484428
1508.06	0.00549717
1517.7	0.00506639
1527.35	0.00601058
1536.99	0.00731918
1546.63	0.00851722
1556.27	0.0101932
1565.91	0.0104899
1575.56	0.0125072
1585.2	0.0126014
1594.84	0.013379
1604.48	0.0132813
1614.13	0.0132961
1623.77	0.012583
1633.41	0.012086
1643.05	0.011637
1652.7	0.0119507
1662.34	0.00932006
1671.98	0.00768913
1681.62	0.00634422
1691.27	0.00484466
1700.91	0.00463003
1710.55	0.0021077
1720.19	0.00212896
1729.84	0.00174042
1739.48	-0.000479206
1749.12	-0.00118357
1758.76	-0.000347356
1768.4	0.000705507
1778.05	0.000505352
1787.69	-0.000117925
1797.33	0.00039565
1806.97	0.00021533
1816.62	-0.000259324
1826.26	9.45243e-05
1835.9	0.000281575
1845.54	-0.000858029
1855.18	-0.000770892
1864.83	-0.000587156
1874.47	-0.00134007
1884.11	-0.00101003
1893.75	-0.00152824
1903.4	-0.000364826
1913.04	-0.00130525
1922.68	-0.00257466
1932.32	-0.00285765
1941.97	-0.00199453
1951.61	-0.0025793
1961.25	-0.00468312
1970.89	-0.00423691
1980.54	-0.00463779
1990.18	-0.00442927
1999.82	-0.00139443
2009.46	-6.79106e-05
2019.11	-0.00350549
2028.75	-0.00381115
2038.39	-0.00254133
2048.03	-0.00209453
2057.67	-0.00566433
2067.32	0.000671126
2076.96	-0.00176476
2086.6	0.00119451
2096.24	-0.00111604
2105.89	-0.000102775
2115.53	0.000185212
2125.17	-0.00291313
2134.81	-0.00270068
2144.45	-0.00594162
2154.1	-0.00402275
2163.74	0.000870331
2173.38	0.000898645
2183.02	0.00200341
2192.67	-9.96732e-05
2202.31	0.000185438
2211.95	0.00224988
2221.59	0.00256829
2231.24	0.00208588
2240.88	0.00222162
2250.52	0.00132225
2260.16	0.00214512
2269.8	0.00542339
2279.45	0.00455153
2289.09	0.00429788
2298.73	0.00502038
2308.38	0.00491515
2318.02	0.00694003
2327.66	0.00638438
2337.3	0.00719858
2346.94	0.00460131
2356.59	0.00747064
2366.23	0.00775025
2375.87	0.00437061
2385.51	0.0032917
2395.16	0.0040593
2404.8	0.00321208
2414.44	0.00402725
2424.08	0.00391724
2433.72	0.0031983
2443.37	0.00507739
2453.01	0.0047437
2462.65	0.0027677
2472.29	0.00313339
2481.94	0.00354199
2491.58	0.00404355
2501.22	0.00446014
2510.86	0.0028902
2520.51	0.00293847
2530.15	0.00428135
2539.79	0.0041957
2549.43	0.0044512
2559.07	0.00327705
2568.72	0.00437891
2578.36	0.00391584
2588	0.00489399
2597.64	0.00461558
2607.29	0.00370493
2616.93	0.00393457
2626.57	0.0042704
2636.21	0.00471673
2645.86	0.00587225
2655.5	0.00599562
2665.14	0.00379883
2674.78	0.00442832
2684.43	0.0039028
2694.07	0.00389192
2703.71	0.0038059
2713.35	0.00465363
2722.99	0.00464191
2732.64	0.00391693
2742.28	0.00426738
2751.92	0.00486324
2761.56	0.00506404
2771.21	0.00501912
2780.85	0.00422512
2790.49	0.0052431
2800.13	0.00555496
2809.78	0.00514787
2819.42	0.00472929
2829.06	0.00643687
2838.7	0.00585836
2848.34	0.00866418
2857.99	0.00435202
2867.63	0.00720201
2877.27	0.00887843
2886.91	0.00736513
2896.56	0.00689969
2906.2	0.00691956
2915.84	0.00913892
2925.48	0.0056898
2935.13	0.006352
2944.77	0.00880991
2954.41	0.00760843
2964.05	0.00746621
2973.7	0.00963787
2983.34	0.00957143
2992.98	0.00927582
3002.62	0.00681277
3012.26	0.00791325
3021.91	0.00799247
3031.55	0.00683236
3041.19	0.00840658
3050.83	0.00649605
3060.48	0.00830661
3070.12	0.00829112
3079.76	0.00920195
3089.4	0.00822836
3099.05	0.0103983
3108.69	0.00917534
3118.33	0.0105338
3127.97	0.00841754
3137.61	0.0104609
3147.26	0.0109488
3156.9	0.0104602
3166.54	0.00943198
3176.18	0.0107016
3185.83	0.0113985
3195.47	0.0107989
3205.11	0.0126541
3214.75	0.0137822
3224.4	0.0157797
3234.04	0.0138265
3243.68	0.0117932
3253.32	0.010583
3262.97	0.015466
3272.61	0.0141318
3282.25	0.0128377
3291.89	0.0128537
3301.53	0.0117765
3311.18	0.0113018
3320.82	0.0134465
3330.46	0.0127336
3340.1	0.0133623
3349.75	0.0126602
3359.39	0.0116051
3369.03	0.0131059
3378.67	0.0136552
3388.32	0.0110314
3397.96	0.0144149
3407.6	0.012206
3417.24	0.01244
3426.89	0.0127357
3436.53	0.00937563
3446.17	0.0110275
3455.81	0.012216
3465.45	0.0106116
3475.1	0.013094
3484.74	0.0103384
3494.38	0.00727422
3504.02	0.00871133
3513.67	0.0100704
3523.31	0.00747931
3532.95	0.00866728
3542.59	0.00771595
3552.24	0.00872039
3561.88	0.00838186
3571.52	0.00843287
3581.16	0.00241372
3590.8	0.00743537
3600.45	0.00476423
3610.09	0.00358626
3619.73	0.00245317
3629.37	0.00632116
3639.02	0.00173048
3648.66	0.00874252
3658.3	0.00624571
3667.94	0.00497997
3677.59	0.00501812
3687.23	0.0111645
3696.87	0.00153017
3706.51	0.00455502
3716.16	0.00336573
3725.8	0.0013479
3735.44	0.00523215
3745.08	0.00372808
3754.72	0.00235291
3764.37	0.00597819
3774.01	0.0032496
3783.65	0.00539602
3793.29	0.00226229
3802.94	-0.000591117
3812.58	-0.000971289
3822.22	0.00188429
3831.86	0.00243024
3841.51	0.00113029
3851.15	0.00311542
3860.79	0.00161466
3870.43	0.002194
3880.07	0.00276688
3889.72	0.00465234
3899.36	0.00190602
3909	0.00077847
3918.64	-0.000932
3928.29	-0.0010952
3937.93	-0.00208562
3947.57	-0.0018958
3957.21	-0.00726759
3966.86	-0.00404092
3976.5	-9.01197e-05
3986.14	0.00238272
3995.78	-0.000526858
