Measurement: Infrared, Infrared Data Processed
Mineral: Parisite-(Ce)
Rruff sample: R050308
Ideal chemistry: CaCe_2_(CO_3_)_3_F_2_
Locality: Muzo, Bogota, Colombia
Source: Eugene Schlepp
Description: Green hexagonal prism
Measured chemistry: Ca_1.00_(Ce_1.03_La_0.49_Nd_0.42_Y_0.06_)_Σ=2_(CO_3_)_3_F_2.00_ ; = lighter phase. Ca_1.00_(Ce_0.96_La_0.51_Nd_0.48_Y_0.05_)_Σ=2_(CO_3_)_3_(F_1.82_(OH)_0.18_)_Σ=2_ = darker phase
x	intensity
399.193	0.0442864
408.835	0.0287315
418.477	0.0265152
428.12	0.0175366
437.762	0.0146586
447.404	0.0138473
457.047	0.0135097
466.689	0.011816
476.331	0.0103123
485.974	0.00954257
495.616	0.0100203
505.258	0.0101261
514.901	0.0105745
524.543	0.00913439
534.185	0.00993957
543.828	0.0107318
553.47	0.0115123
563.112	0.0107433
572.755	0.0111893
582.397	0.012761
592.039	0.0132899
601.682	0.0145406
611.324	0.0145523
620.966	0.0139063
630.609	0.0143965
640.251	0.014046
649.893	0.0144183
659.536	0.0153679
669.178	0.0185486
678.82	0.0197272
688.463	0.0162043
698.105	0.0167174
707.747	0.0177384
717.39	0.0197829
727.032	0.0255114
736.674	0.0513674
746.317	0.0389849
755.959	0.020328
765.601	0.0177706
775.244	0.018475
784.886	0.0190276
794.528	0.0198834
804.171	0.0207753
813.813	0.0234856
823.455	0.0264365
833.098	0.0353282
842.74	0.0588593
852.382	0.0852302
862.025	0.225608
871.667	0.212595
881.309	0.0177375
890.952	0.0111285
900.594	0.0118067
910.236	0.0131751
919.879	0.0139343
929.521	0.0152058
939.163	0.0160661
948.806	0.01674
958.448	0.0180413
968.09	0.0189182
977.733	0.0200322
987.375	0.0208355
997.017	0.0222221
1006.66	0.0236718
1016.3	0.0250142
1025.94	0.0263105
1035.59	0.0278792
1045.23	0.030336
1054.87	0.0349209
1064.51	0.0416185
1074.16	0.0488626
1083.8	0.0516069
1093.44	0.0447309
1103.08	0.0305086
1112.72	0.0320382
1122.37	0.0348237
1132.01	0.0375523
1141.65	0.0396627
1151.3	0.0419696
1160.94	0.0439871
1170.58	0.0466025
1180.22	0.0494619
1189.86	0.0529126
1199.51	0.0564097
1209.15	0.060553
1218.79	0.0651579
1228.43	0.0699874
1238.08	0.0755508
1247.72	0.0824909
1257.36	0.0897872
1267	0.098716
1276.64	0.109244
1286.29	0.12141
1295.93	0.137643
1305.57	0.156479
1315.21	0.180323
1324.86	0.208303
1334.5	0.240162
1344.14	0.272096
1353.78	0.30491
1363.43	0.331242
1373.07	0.354872
1382.71	0.370598
1392.35	0.39059
1401.99	0.416229
1411.64	0.417473
1421.28	0.40258
1430.92	0.400792
1440.57	0.405233
1450.21	0.386906
1459.85	0.338331
1469.49	0.294439
1479.13	0.256355
1488.78	0.216828
1498.42	0.176298
1508.06	0.139577
1517.7	0.113824
1527.35	0.0946554
1536.99	0.0765018
1546.63	0.0609345
1556.27	0.0472308
1565.91	0.0362685
1575.56	0.0276967
1585.2	0.0216222
1594.84	0.016458
1604.48	0.0125706
1614.13	0.00924981
1623.77	0.00705673
1633.41	0.00663539
1643.05	0.00604601
1652.7	0.00550477
1662.34	0.00469682
1671.98	0.00402349
1681.62	0.00318968
1691.27	0.00221849
1700.91	-5.44398e-05
1710.55	-0.00273842
1720.19	-0.00247304
1729.84	-0.00305825
1739.48	-0.00423919
1749.12	0.000800148
1758.76	0.00477983
1768.4	0.00586325
1778.05	0.00500163
1787.69	0.00391225
1797.33	0.00434837
1806.97	0.00510771
1816.62	0.008328
1826.26	0.00892063
1835.9	0.00587332
1845.54	0.00589406
1855.18	0.00487816
1864.83	0.00527659
1874.47	0.00607805
1884.11	0.00526581
1893.75	0.00493432
1903.4	0.00555409
1913.04	0.00624993
1922.68	0.00471608
1932.32	0.00588083
1941.97	0.00598171
1951.61	0.00786932
1961.25	0.00526586
1970.89	0.00446028
1980.54	0.0107721
1990.18	0.00893662
1999.82	0.00749736
2009.46	0.00872377
2019.11	0.0057437
2028.75	0.00645011
2038.39	0.00801809
2048.03	0.0111434
2057.67	0.00820073
2067.32	0.00883304
2076.96	0.007378
2086.6	0.00978527
2096.24	0.00838788
2105.89	0.00896423
2115.53	0.00889018
2125.17	0.0060238
2134.81	0.0072089
2144.45	0.0065992
2154.1	0.00667064
2163.74	0.0107241
2173.38	0.0136671
2183.02	0.0116967
2192.67	0.0119364
2202.31	0.014824
2211.95	0.0112827
2221.59	0.0104126
2231.24	0.00813186
2240.88	0.0125602
2250.52	0.0118297
2260.16	0.0100296
2269.8	0.0116895
2279.45	0.0130143
2289.09	0.0134209
2298.73	0.013709
2308.38	0.0133805
2318.02	0.0130396
2327.66	0.0130705
2337.3	0.013649
2346.94	0.0141672
2356.59	0.0143872
2366.23	0.01368
2375.87	0.0121245
2385.51	0.0116333
2395.16	0.0120134
2404.8	0.0124911
2414.44	0.0117522
2424.08	0.0134166
2433.72	0.014129
2443.37	0.0131726
2453.01	0.0140081
2462.65	0.0151469
2472.29	0.0157205
2481.94	0.0140086
2491.58	0.0171088
2501.22	0.017946
2510.86	0.0172113
2520.51	0.015796
2530.15	0.0149857
2539.79	0.0157032
2549.43	0.014553
2559.07	0.0147459
2568.72	0.0133014
2578.36	0.0123793
2588	0.0138531
2597.64	0.0126552
2607.29	0.0132913
2616.93	0.0116922
2626.57	0.0120234
2636.21	0.0130376
2645.86	0.0121501
2655.5	0.0116124
2665.14	0.0114214
2674.78	0.0109541
2684.43	0.0098456
2694.07	0.00981345
2703.71	0.00987038
2713.35	0.0111562
2722.99	0.0106887
2732.64	0.0109743
2742.28	0.0101673
2751.92	0.0116149
2761.56	0.0111475
2771.21	0.0112663
2780.85	0.0113521
2790.49	0.0113924
2800.13	0.0117237
2809.78	0.0119483
2819.42	0.010992
2829.06	0.011376
2838.7	0.0106615
2848.34	0.0123768
2857.99	0.0124001
2867.63	0.0124308
2877.27	0.0120508
2886.91	0.011368
2896.56	0.0110954
2906.2	0.0103943
2915.84	0.0120567
2925.48	0.0119047
2935.13	0.0129175
2944.77	0.0129818
2954.41	0.0121348
2964.05	0.0154121
2973.7	0.0143159
2983.34	0.0158755
2992.98	0.0169049
3002.62	0.0170042
3012.26	0.0167611
3021.91	0.0185807
3031.55	0.0142604
3041.19	0.0164655
3050.83	0.0168861
3060.48	0.0187357
3070.12	0.0165203
3079.76	0.0200833
3089.4	0.0190333
3099.05	0.0187571
3108.69	0.0201931
3118.33	0.0189882
3127.97	0.0187403
3137.61	0.0213198
3147.26	0.0222228
3156.9	0.0226253
3166.54	0.020126
3176.18	0.0221076
3185.83	0.0232294
3195.47	0.0226115
3205.11	0.0228892
3214.75	0.0220254
3224.4	0.022714
3234.04	0.0223265
3243.68	0.0214109
3253.32	0.0215232
3262.97	0.0250096
3272.61	0.0225358
3282.25	0.0218821
3291.89	0.0217749
3301.53	0.025299
3311.18	0.0247153
3320.82	0.0244771
3330.46	0.0226459
3340.1	0.0237739
3349.75	0.0226891
3359.39	0.0221643
3369.03	0.0253974
3378.67	0.0222378
3388.32	0.0233242
3397.96	0.024629
3407.6	0.0234032
3417.24	0.0251923
3426.89	0.0247943
3436.53	0.0230237
3446.17	0.0237069
3455.81	0.0231065
3465.45	0.025397
3475.1	0.0250118
3484.74	0.0251898
3494.38	0.0222957
3504.02	0.0223371
3513.67	0.0261331
3523.31	0.0228379
3532.95	0.0238136
3542.59	0.0247534
3552.24	0.0227319
3561.88	0.027169
3571.52	0.022391
3581.16	0.0245429
3590.8	0.0257503
3600.45	0.0224017
3610.09	0.0244816
3619.73	0.0223924
3629.37	0.0238918
3639.02	0.019526
3648.66	0.0248927
3658.3	0.0230998
3667.94	0.0268703
3677.59	0.0236745
3687.23	0.0259254
3696.87	0.0210942
3706.51	0.0237887
3716.16	0.0243427
3725.8	0.021323
3735.44	0.0241816
3745.08	0.0242352
3754.72	0.025975
3764.37	0.0263251
3774.01	0.0235244
3783.65	0.0290298
3793.29	0.0286662
3802.94	0.0270499
3812.58	0.022953
3822.22	0.0258539
3831.86	0.0206492
3841.51	0.0299641
3851.15	0.0271184
3860.79	0.0261388
3870.43	0.0306492
3880.07	0.0248599
3889.72	0.0240499
3899.36	0.0287769
3909	0.0261562
3918.64	0.0240597
3928.29	0.0277319
3937.93	0.0251255
3947.57	0.0289303
3957.21	0.0303656
3966.86	0.0214499
3976.5	0.0266179
3986.14	0.0246571
3995.78	0.0269941
