Measurement: Infrared, Infrared Data Processed
Mineral: Pearceite
Rruff sample: R050310
Ideal chemistry: Cu(Ag,Cu)_6_Ag_9_As_2_S_11_
Locality: Conception del Oro, Zacatecas, Mexico
Source: Eugene Schlepp
Description: Black metallic distorted crystals associated with quartz and galena. X-ray diffraction shows that this is pearceite-Tac.  Unable to obtain Raman spectra without burning the sample.
Measured chemistry: Cu(Ag_3.41_Cu_2.37_Fe_0.22_)_Σ=6_Ag_9_(As_1.41_Sb_0.59_)_Σ=2_S_11.00_
x	intensity
399.193	0.489543
408.835	0.506369
418.477	0.473907
428.12	0.461193
437.762	0.408958
447.404	0.36071
457.047	0.308223
466.689	0.247896
476.331	0.211486
485.974	0.230316
495.616	0.233492
505.258	0.237562
514.901	0.293972
524.543	0.367364
534.185	0.42639
543.828	0.476005
553.47	0.49832
563.112	0.504586
572.755	0.487476
582.397	0.468651
592.039	0.437444
601.682	0.403182
611.324	0.368756
620.966	0.337259
630.609	0.350185
640.251	0.350995
649.893	0.322177
659.536	0.298133
669.178	0.277532
678.82	0.261405
688.463	0.246785
698.105	0.234171
707.747	0.222291
717.39	0.210682
727.032	0.199163
736.674	0.189565
746.317	0.180661
755.959	0.173557
765.601	0.166639
775.244	0.159252
784.886	0.152747
794.528	0.146407
804.171	0.139407
813.813	0.132937
823.455	0.125665
833.098	0.118414
842.74	0.108095
852.382	0.0971573
862.025	0.0878503
871.667	0.0802914
881.309	0.0748715
890.952	0.0714107
900.594	0.0672231
910.236	0.0633322
919.879	0.059928
929.521	0.0575156
939.163	0.0557677
948.806	0.0548737
958.448	0.0553668
968.09	0.0555228
977.733	0.0606501
987.375	0.0634832
997.017	0.065345
1006.66	0.0651656
1016.3	0.0641302
1025.94	0.0617291
1035.59	0.0596063
1045.23	0.0576657
1054.87	0.0565401
1064.51	0.0555087
1074.16	0.0548469
1083.8	0.0541375
1093.44	0.0535579
1103.08	0.0525884
1112.72	0.0516695
1122.37	0.0507954
1132.01	0.0493812
1141.65	0.0474165
1151.3	0.045608
1160.94	0.0438971
1170.58	0.0418316
1180.22	0.0399387
1189.86	0.0386396
1199.51	0.0372771
1209.15	0.035521
1218.79	0.0336118
1228.43	0.0317977
1238.08	0.0303766
1247.72	0.0291537
1257.36	0.0290034
1267	0.0285802
1276.64	0.0293352
1286.29	0.0292057
1295.93	0.0300833
1305.57	0.0303649
1315.21	0.0311133
1324.86	0.0317374
1334.5	0.0326427
1344.14	0.0330445
1353.78	0.034272
1363.43	0.0344433
1373.07	0.0361549
1382.71	0.0358512
1392.35	0.0371912
1401.99	0.0383129
1411.64	0.0392781
1421.28	0.0398454
1430.92	0.0393335
1440.57	0.0387325
1450.21	0.0389596
1459.85	0.0379333
1469.49	0.0374343
1479.13	0.0378787
1488.78	0.0382606
1498.42	0.0392531
1508.06	0.0402297
1517.7	0.0409368
1527.35	0.0423853
1536.99	0.0437951
1546.63	0.0448926
1556.27	0.045165
1565.91	0.0453426
1575.56	0.0443096
1585.2	0.0442357
1594.84	0.0443183
1604.48	0.0439985
1614.13	0.0436215
1623.77	0.0436428
1633.41	0.0442692
1643.05	0.0442474
1652.7	0.0446158
1662.34	0.0431565
1671.98	0.0419102
1681.62	0.0410674
1691.27	0.0400371
1700.91	0.0383913
1710.55	0.034898
1720.19	0.0355764
1729.84	0.0351104
1739.48	0.0321712
1749.12	0.0344358
1758.76	0.0393536
1768.4	0.0415979
1778.05	0.0426937
1787.69	0.0423613
1797.33	0.0431624
1806.97	0.0431815
1816.62	0.0436551
1826.26	0.0447138
1835.9	0.0450761
1845.54	0.044817
1855.18	0.0454693
1864.83	0.0459222
1874.47	0.0462554
1884.11	0.0474817
1893.75	0.0471881
1903.4	0.047475
1913.04	0.0470404
1922.68	0.0472322
1932.32	0.0473874
1941.97	0.048253
1951.61	0.048049
1961.25	0.0477972
1970.89	0.0467996
1980.54	0.0507655
1990.18	0.0494988
1999.82	0.0504402
2009.46	0.0486038
2019.11	0.0492417
2028.75	0.0458128
2038.39	0.0483997
2048.03	0.0510078
2057.67	0.0502895
2067.32	0.0517909
2076.96	0.0508765
2086.6	0.0537387
2096.24	0.050953
2105.89	0.0525114
2115.53	0.0536013
2125.17	0.0512326
2134.81	0.0518111
2144.45	0.0501524
2154.1	0.0498868
2163.74	0.0551486
2173.38	0.0577641
2183.02	0.0572663
2192.67	0.0561509
2202.31	0.0579576
2211.95	0.0580922
2221.59	0.0550825
2231.24	0.0540858
2240.88	0.0563701
2250.52	0.0559846
2260.16	0.0572113
2269.8	0.0586204
2279.45	0.0591305
2289.09	0.0606499
2298.73	0.0600708
2308.38	0.0597639
2318.02	0.0594235
2327.66	0.0606435
2337.3	0.0606686
2346.94	0.0609193
2356.59	0.0607889
2366.23	0.0603271
2375.87	0.0600694
2385.51	0.0603152
2395.16	0.0599899
2404.8	0.0605195
2414.44	0.0606591
2424.08	0.0617245
2433.72	0.0622497
2443.37	0.0608216
2453.01	0.062269
2462.65	0.0626905
2472.29	0.0639508
2481.94	0.060646
2491.58	0.0636276
2501.22	0.0640499
2510.86	0.0643231
2520.51	0.0643819
2530.15	0.0618595
2539.79	0.0651098
2549.43	0.0652099
2559.07	0.0662399
2568.72	0.0657309
2578.36	0.0662353
2588	0.0653301
2597.64	0.0656005
2607.29	0.0672476
2616.93	0.067348
2626.57	0.0667935
2636.21	0.0677042
2645.86	0.0676058
2655.5	0.0686231
2665.14	0.0684898
2674.78	0.0683682
2684.43	0.0673156
2694.07	0.0693547
2703.71	0.0688924
2713.35	0.0704989
2722.99	0.0705002
2732.64	0.0701587
2742.28	0.0701888
2751.92	0.0721587
2761.56	0.0727828
2771.21	0.0727417
2780.85	0.0742925
2790.49	0.0727094
2800.13	0.0737661
2809.78	0.0737537
2819.42	0.0747344
2829.06	0.0752701
2838.7	0.0756686
2848.34	0.0752424
2857.99	0.075189
2867.63	0.0764942
2877.27	0.0770705
2886.91	0.0758354
2896.56	0.0768386
2906.2	0.0769397
2915.84	0.0812102
2925.48	0.077517
2935.13	0.0781799
2944.77	0.0798946
2954.41	0.081676
2964.05	0.0843358
2973.7	0.0811037
2983.34	0.0820204
2992.98	0.0820035
3002.62	0.0832564
3012.26	0.0825156
3021.91	0.0849806
3031.55	0.0843529
3041.19	0.0851763
3050.83	0.0863204
3060.48	0.087269
3070.12	0.0856149
3079.76	0.0895196
3089.4	0.090323
3099.05	0.0903431
3108.69	0.0914637
3118.33	0.0907225
3127.97	0.0918857
3137.61	0.0928076
3147.26	0.0941893
3156.9	0.0936782
3166.54	0.0942737
3176.18	0.0969674
3185.83	0.0985981
3195.47	0.0977291
3205.11	0.0972914
3214.75	0.0987408
3224.4	0.10061
3234.04	0.100416
3243.68	0.0993333
3253.32	0.100728
3262.97	0.102166
3272.61	0.102271
3282.25	0.102343
3291.89	0.101632
3301.53	0.106583
3311.18	0.108403
3320.82	0.107109
3330.46	0.107237
3340.1	0.109533
3349.75	0.107382
3359.39	0.10898
3369.03	0.112054
3378.67	0.110303
3388.32	0.110382
3397.96	0.111919
3407.6	0.110737
3417.24	0.114309
3426.89	0.110696
3436.53	0.112232
3446.17	0.111256
3455.81	0.109307
3465.45	0.114554
3475.1	0.108682
3484.74	0.111384
3494.38	0.109354
3504.02	0.108031
3513.67	0.11233
3523.31	0.10886
3532.95	0.107604
3542.59	0.105001
3552.24	0.105425
3561.88	0.103675
3571.52	0.103088
3581.16	0.102516
3590.8	0.102469
3600.45	0.099617
3610.09	0.0986223
3619.73	0.0967535
3629.37	0.0973432
3639.02	0.0898483
3648.66	0.0944618
3658.3	0.0888149
3667.94	0.0898323
3677.59	0.0895002
3687.23	0.0882684
3696.87	0.0873027
3706.51	0.0890351
3716.16	0.0905558
3725.8	0.0872956
3735.44	0.0917116
3745.08	0.0876443
3754.72	0.0924468
3764.37	0.0908815
3774.01	0.089996
3783.65	0.0912633
3793.29	0.0911012
3802.94	0.0915586
3812.58	0.0917693
3822.22	0.0936103
3831.86	0.0913501
3841.51	0.0958289
3851.15	0.0936346
3860.79	0.0885164
3870.43	0.0950323
3880.07	0.0884066
3889.72	0.0904606
3899.36	0.0968737
3909	0.0891691
3918.64	0.0906717
3928.29	0.0928763
3937.93	0.0942375
3947.57	0.0964696
3957.21	0.0936991
3966.86	0.0934781
3976.5	0.0951843
3986.14	0.0944081
3995.78	0.0955178
