Measurement: Infrared, Infrared Data Processed
Mineral: Pectolite
Rruff sample: R060101
Ideal chemistry: NaCa_2_Si_3_O_8_(OH)
Locality: West Patterson, New Jersey, USA
Source: University of Arizona Mineral Museum
Description: Tufts of white acicular sprays
Measured chemistry: Na_1.02_Ca_2.00_Si_2.99_O_8_(OH)
x	intensity
399.193	0.107617
408.835	0.153812
418.477	0.147374
428.12	0.14448
437.762	0.177555
447.404	0.230973
457.047	0.228293
466.689	0.208225
476.331	0.176783
485.974	0.141914
495.616	0.11116
505.258	0.0759056
514.901	0.0734301
524.543	0.0894148
534.185	0.0844036
543.828	0.0640505
553.47	0.0506846
563.112	0.0452818
572.755	0.0441944
582.397	0.0453455
592.039	0.0480471
601.682	0.0526623
611.324	0.0603365
620.966	0.0722041
630.609	0.0962829
640.251	0.13361
649.893	0.100649
659.536	0.0909153
669.178	0.115291
678.82	0.0931402
688.463	0.065821
698.105	0.048379
707.747	0.0435737
717.39	0.0491881
727.032	0.0555947
736.674	0.0622435
746.317	0.0688673
755.959	0.0752186
765.601	0.0823409
775.244	0.089326
784.886	0.0949764
794.528	0.100485
804.171	0.10568
813.813	0.110751
823.455	0.115368
833.098	0.12054
842.74	0.127624
852.382	0.138747
862.025	0.15821
871.667	0.192578
881.309	0.246316
890.952	0.311871
900.594	0.342477
910.236	0.313555
919.879	0.283708
929.521	0.237707
939.163	0.173723
948.806	0.144135
958.448	0.146554
968.09	0.169199
977.733	0.181922
987.375	0.211528
997.017	0.205827
1006.66	0.169187
1016.3	0.184115
1025.94	0.208675
1035.59	0.215164
1045.23	0.195298
1054.87	0.160802
1064.51	0.126416
1074.16	0.0951658
1083.8	0.0669967
1093.44	0.0451128
1103.08	0.0305771
1112.72	0.0221686
1122.37	0.0180742
1132.01	0.0157959
1141.65	0.0144598
1151.3	0.0140248
1160.94	0.0132449
1170.58	0.0133544
1180.22	0.0135987
1189.86	0.0139076
1199.51	0.0142772
1209.15	0.0147618
1218.79	0.0149746
1228.43	0.0152777
1238.08	0.0156452
1247.72	0.0159374
1257.36	0.0163332
1267	0.0169237
1276.64	0.0177809
1286.29	0.0184736
1295.93	0.0192508
1305.57	0.0199865
1315.21	0.0205741
1324.86	0.0216035
1334.5	0.0224985
1344.14	0.024131
1353.78	0.0263737
1363.43	0.0295155
1373.07	0.034916
1382.71	0.0416806
1392.35	0.0455089
1401.99	0.0415579
1411.64	0.0340873
1421.28	0.0287411
1430.92	0.0262464
1440.57	0.0248711
1450.21	0.023922
1459.85	0.0229949
1469.49	0.0228904
1479.13	0.0232894
1488.78	0.0223315
1498.42	0.0218428
1508.06	0.0205364
1517.7	0.0207287
1527.35	0.0205913
1536.99	0.0199291
1546.63	0.0201592
1556.27	0.0187568
1565.91	0.0194867
1575.56	0.0176599
1585.2	0.0187441
1594.84	0.0185907
1604.48	0.018496
1614.13	0.0180373
1623.77	0.017583
1633.41	0.0175531
1643.05	0.0175773
1652.7	0.0143153
1662.34	0.0169678
1671.98	0.0167131
1681.62	0.0162706
1691.27	0.0166002
1700.91	0.0145187
1710.55	0.0159346
1720.19	0.0152013
1729.84	0.0150778
1739.48	0.0138183
1749.12	0.0132841
1758.76	0.0138691
1768.4	0.0134414
1778.05	0.0137316
1787.69	0.0137946
1797.33	0.0127206
1806.97	0.0128327
1816.62	0.012396
1826.26	0.012304
1835.9	0.0117947
1845.54	0.0114534
1855.18	0.0118847
1864.83	0.0115871
1874.47	0.0116654
1884.11	0.0114779
1893.75	0.0119374
1903.4	0.0118719
1913.04	0.0117778
1922.68	0.0110171
1932.32	0.0108089
1941.97	0.0101202
1951.61	0.0109998
1961.25	0.0108785
1970.89	0.00932803
1980.54	0.0110814
1990.18	0.00945341
1999.82	0.00949566
2009.46	0.0100496
2019.11	0.00965923
2028.75	0.00874202
2038.39	0.00937975
2048.03	0.00887218
2057.67	0.00793516
2067.32	0.00742995
2076.96	0.00863851
2086.6	0.00848056
2096.24	0.00879472
2105.89	0.00973204
2115.53	0.0083305
2125.17	0.00856915
2134.81	0.00794443
2144.45	0.0067768
2154.1	0.00885994
2163.74	0.0129085
2173.38	0.0119396
2183.02	0.0124274
2192.67	0.0127284
2202.31	0.0124283
2211.95	0.0128408
2221.59	0.0127153
2231.24	0.012174
2240.88	0.0134111
2250.52	0.0124342
2260.16	0.0120064
2269.8	0.0124454
2279.45	0.0123625
2289.09	0.012089
2298.73	0.0115066
2308.38	0.0111424
2318.02	0.0118002
2327.66	0.0113937
2337.3	0.0111335
2346.94	0.0110445
2356.59	0.0109863
2366.23	0.0106745
2375.87	0.0100933
2385.51	0.00976645
2395.16	0.00988384
2404.8	0.009226
2414.44	0.009905
2424.08	0.00970834
2433.72	0.00925796
2443.37	0.00949728
2453.01	0.00955894
2462.65	0.00944635
2472.29	0.0088096
2481.94	0.00885597
2491.58	0.00870371
2501.22	0.00846608
2510.86	0.00841085
2520.51	0.00800579
2530.15	0.00836851
2539.79	0.00835997
2549.43	0.00819836
2559.07	0.00827585
2568.72	0.00818213
2578.36	0.00748255
2588	0.00822596
2597.64	0.00779999
2607.29	0.00767074
2616.93	0.00802375
2626.57	0.00816237
2636.21	0.0076446
2645.86	0.00816947
2655.5	0.00779491
2665.14	0.00735199
2674.78	0.00733563
2684.43	0.00743989
2694.07	0.0075697
2703.71	0.00750487
2713.35	0.00781672
2722.99	0.00801075
2732.64	0.00790972
2742.28	0.00802047
2751.92	0.00787781
2761.56	0.00788906
2771.21	0.00814359
2780.85	0.00799879
2790.49	0.00821191
2800.13	0.00838672
2809.78	0.00837235
2819.42	0.00871506
2829.06	0.00872737
2838.7	0.00902993
2848.34	0.00763042
2857.99	0.00784728
2867.63	0.00802864
2877.27	0.00773911
2886.91	0.00790304
2896.56	0.00784482
2906.2	0.00727224
2915.84	0.00651933
2925.48	0.00591854
2935.13	0.00625405
2944.77	0.00702773
2954.41	0.00686766
2964.05	0.00681629
2973.7	0.00673714
2983.34	0.00671466
2992.98	0.00746364
3002.62	0.00682205
3012.26	0.00726079
3021.91	0.00763636
3031.55	0.00686493
3041.19	0.00691432
3050.83	0.00702994
3060.48	0.0071125
3070.12	0.007116
3079.76	0.00734631
3089.4	0.00724735
3099.05	0.00741782
3108.69	0.006754
3118.33	0.00744561
3127.97	0.00730441
3137.61	0.00802814
3147.26	0.00739287
3156.9	0.00777135
3166.54	0.00756499
3176.18	0.00763472
3185.83	0.00764772
3195.47	0.00769772
3205.11	0.00754905
3214.75	0.00821867
3224.4	0.00769118
3234.04	0.00739306
3243.68	0.00760346
3253.32	0.00709871
3262.97	0.00781938
3272.61	0.00809996
3282.25	0.00666992
3291.89	0.0077858
3301.53	0.00736688
3311.18	0.00742504
3320.82	0.00757456
3330.46	0.00735034
3340.1	0.00719791
3349.75	0.00663382
3359.39	0.00756488
3369.03	0.00706675
3378.67	0.00755764
3388.32	0.00704209
3397.96	0.00730654
3407.6	0.00655652
3417.24	0.00682647
3426.89	0.0064482
3436.53	0.00703474
3446.17	0.00660535
3455.81	0.00611114
3465.45	0.00718143
3475.1	0.00688798
3484.74	0.00667541
3494.38	0.0068949
3504.02	0.00632711
3513.67	0.00607244
3523.31	0.005992
3532.95	0.00661662
3542.59	0.0060598
3552.24	0.00565611
3561.88	0.00639958
3571.52	0.00586047
3581.16	0.00513856
3590.8	0.00469772
3600.45	0.00490737
3610.09	0.00417285
3619.73	0.00448389
3629.37	0.00279664
3639.02	0.00466174
3648.66	0.00278754
3658.3	0.00404603
3667.94	0.00444866
3677.59	0.00340419
3687.23	0.00226348
3696.87	0.00509605
3706.51	0.0049824
3716.16	0.00419923
3725.8	0.0042976
3735.44	0.00310414
3745.08	0.001088
3754.72	0.00413494
3764.37	0.00496305
3774.01	0.0052339
3783.65	0.00466571
3793.29	0.00480292
3802.94	0.00379778
3812.58	0.0048274
3822.22	0.00310974
3831.86	0.0044389
3841.51	0.00393115
3851.15	0.00146682
3860.79	0.0043491
3870.43	0.0019683
3880.07	0.00379828
3889.72	0.00431982
3899.36	0.00458103
3909	0.00537968
3918.64	0.0051451
3928.29	0.00464267
3937.93	0.00483595
3947.57	0.00500352
3957.21	0.00533495
3966.86	0.00499902
3976.5	0.00481565
3986.14	0.00565061
3995.78	0.00507918
