Measurement: Infrared, Infrared Data Processed
Mineral: Pectolite
Rruff sample: R050396
Ideal chemistry: NaCa_2_Si_3_O_8_(OH)
Locality: Jeffrey Quarry, Asbestos, Quebec, Canada
Source: Marcus Origlieri
Description: Colorless to gray columnar blocky crystals
Measured chemistry: Na_1.00_Ca_2.00_Si_3.00_O_8_(OH)
x	intensity
374.123	0.0509992
383.765	0.0652451
393.407	0.0902755
403.05	0.127862
412.692	0.163883
422.334	0.141504
431.976	0.156833
441.619	0.197296
451.261	0.226596
460.904	0.209292
470.546	0.184737
480.188	0.152106
489.83	0.118025
499.473	0.0943396
509.115	0.067507
518.758	0.0793223
528.4	0.0937282
538.042	0.0773104
547.684	0.0592191
557.327	0.0509496
566.969	0.048591
576.611	0.0492652
586.254	0.0521637
595.896	0.0534142
605.538	0.0572032
615.181	0.0633653
624.823	0.0768634
634.466	0.110836
644.108	0.130098
653.75	0.0904706
663.393	0.100561
673.035	0.122511
682.677	0.0753477
692.319	0.0637744
701.962	0.0445773
711.604	0.0467328
721.246	0.0537062
730.889	0.0602137
740.531	0.0656735
750.173	0.0712297
759.816	0.0780987
769.458	0.0857298
779.101	0.0916077
788.743	0.0968042
798.385	0.101662
808.028	0.106764
817.67	0.111558
827.312	0.116725
836.955	0.123271
846.597	0.133024
856.239	0.145502
865.881	0.172224
875.524	0.221212
885.166	0.276834
894.808	0.341262
904.451	0.343353
914.093	0.307349
923.736	0.272956
933.378	0.210502
943.02	0.159567
952.663	0.147159
962.305	0.165265
971.947	0.188809
981.59	0.209278
991.232	0.23525
1000.87	0.201661
1010.52	0.187718
1020.16	0.210059
1029.8	0.224286
1039.44	0.216284
1049.09	0.18727
1058.73	0.15087
1068.37	0.117578
1078.01	0.0877412
1087.65	0.0622302
1097.3	0.0435415
1106.94	0.0320892
1116.58	0.0260188
1126.22	0.0234864
1135.87	0.022363
1145.51	0.0212959
1155.15	0.0199815
1164.79	0.0186248
1174.44	0.0174671
1184.08	0.0167344
1193.72	0.0165775
1203.36	0.0164406
1213.01	0.0164211
1222.65	0.0166011
1232.29	0.0166514
1241.93	0.0166547
1251.58	0.0169947
1261.22	0.017463
1270.86	0.0183033
1280.5	0.0194592
1290.14	0.0199751
1299.79	0.0207608
1309.43	0.0214019
1319.07	0.0221168
1328.71	0.0231697
1338.36	0.0245676
1348	0.0265009
1357.64	0.0293003
1367.28	0.0336488
1376.92	0.0403555
1386.57	0.0477975
1396.21	0.0496094
1405.85	0.0446311
1415.49	0.0395362
1425.14	0.036342
1434.78	0.0352753
1444.42	0.0344415
1454.06	0.0340158
1463.71	0.0337939
1473.35	0.0332824
1482.99	0.0320665
1492.63	0.0307556
1502.28	0.0294723
1511.92	0.0279622
1521.56	0.0271153
1531.2	0.0255934
1540.85	0.0248447
1550.49	0.0228915
1560.13	0.0224884
1569.77	0.0202776
1579.41	0.0194281
1589.06	0.0189127
1598.7	0.0188859
1608.34	0.0185789
1617.98	0.0187632
1627.63	0.0182043
1637.27	0.0183989
1646.91	0.0183884
1656.55	0.0176701
1666.19	0.0172964
1675.84	0.0173655
1685.48	0.0173417
1695.12	0.0170632
1704.77	0.0164858
1714.41	0.0166787
1724.05	0.0165543
1733.69	0.0168769
1743.33	0.0146482
1752.98	0.0135362
1762.62	0.0134526
1772.26	0.0134195
1781.9	0.0126651
1791.55	0.0128273
1801.19	0.0121838
1810.83	0.0116573
1820.47	0.0111387
1830.12	0.011142
1839.76	0.010546
1849.4	0.0105268
1859.04	0.0100502
1868.68	0.0100719
1878.33	0.00992821
1887.97	0.00995942
1897.61	0.0098299
1907.25	0.0100993
1916.9	0.00970567
1926.54	0.0091641
1936.18	0.00859027
1945.82	0.00847104
1955.46	0.00745351
1965.11	0.00828262
1974.75	0.00781521
1984.39	0.00747369
1994.04	0.00730828
2003.68	0.00702146
2013.32	0.00716679
2022.96	0.00558249
2032.6	0.00698031
2042.25	0.00644299
2051.89	0.00606917
2061.53	0.00560036
2071.17	0.00595911
2080.82	0.00551711
2090.46	0.00500368
2100.1	0.00536226
2109.74	0.00422539
2119.39	0.00515092
2129.03	0.00416703
2138.67	0.00422464
2148.31	0.00500457
2157.95	0.00498524
2167.6	0.00770957
2177.24	0.00849351
2186.88	0.00927908
2196.52	0.00869521
2206.17	0.00918434
2215.81	0.00904732
2225.45	0.00921178
2235.09	0.00922682
2244.74	0.00932136
2254.38	0.00926209
2264.02	0.0095546
2273.66	0.00974815
2283.3	0.00918597
2292.95	0.00930407
2302.59	0.00910425
2312.23	0.00898826
2321.87	0.00983505
2331.52	0.00923231
2341.16	0.0087501
2350.8	0.00792206
2360.44	0.00909764
2370.09	0.00803608
2379.73	0.00747854
2389.37	0.00722083
2399.01	0.00688985
2408.66	0.00679903
2418.3	0.00668478
2427.94	0.00686583
2437.58	0.00678619
2447.22	0.00661714
2456.87	0.00629697
2466.51	0.00647693
2476.15	0.0061494
2485.79	0.0064296
2495.44	0.00609349
2505.08	0.00543734
2514.72	0.00565604
2524.36	0.00556528
2534.01	0.0052441
2543.65	0.00490129
2553.29	0.00523581
2562.93	0.00448477
2572.57	0.00453439
2582.22	0.00489347
2591.86	0.00489722
2601.5	0.00440145
2611.14	0.00513363
2620.79	0.00482
2630.43	0.00462486
2640.07	0.00475009
2649.71	0.00453381
2659.36	0.00464282
2669	0.00409285
2678.64	0.00430972
2688.28	0.00446934
2697.93	0.00431756
2707.57	0.00447848
2717.21	0.0046618
2726.85	0.00447288
2736.49	0.00491934
2746.14	0.00503004
2755.78	0.00508813
2765.42	0.00501492
2775.06	0.00540178
2784.71	0.00522991
2794.35	0.00512462
2803.99	0.00569923
2813.63	0.00640106
2823.28	0.00565328
2832.92	0.00629199
2842.56	0.00644453
2852.2	0.00646762
2861.84	0.00650521
2871.49	0.00632659
2881.13	0.00573584
2890.77	0.00656462
2900.41	0.00667251
2910.06	0.00663334
2919.7	0.00719245
2929.34	0.00725633
2938.98	0.00607942
2948.62	0.00615858
2958.27	0.00652762
2967.91	0.00572241
2977.55	0.00494314
2987.2	0.00469908
2996.84	0.00447114
3006.48	0.00475085
3016.12	0.00482068
3025.76	0.00436267
3035.41	0.00445207
3045.05	0.00402331
3054.69	0.00443044
3064.33	0.00435756
3073.98	0.00465408
3083.62	0.00481256
3093.26	0.00439982
3102.9	0.00477245
3112.55	0.00524888
3122.19	0.00532438
3131.83	0.00495223
3141.47	0.00481499
3151.11	0.00500878
3160.76	0.00495687
3170.4	0.00535711
3180.04	0.00546261
3189.68	0.00513506
3199.33	0.00512563
3208.97	0.00539385
3218.61	0.00516924
3228.25	0.00510415
3237.9	0.00458451
3247.54	0.00504155
3257.18	0.00486996
3266.82	0.00493342
3276.47	0.00493856
3286.11	0.00431433
3295.75	0.00423494
3305.39	0.00429264
3315.03	0.00414449
3324.68	0.00434952
3334.32	0.00404918
3343.96	0.00403284
3353.6	0.00362652
3363.25	0.00420831
3372.89	0.00477713
3382.53	0.00402926
3392.17	0.00458459
3401.82	0.00295972
3411.46	0.00342843
3421.1	0.00271554
3430.74	0.00325574
3440.39	0.00326428
3450.03	0.0027465
3459.67	0.0022736
3469.31	0.00248506
3478.95	0.00296377
3488.6	0.00222036
3498.24	0.00166893
3507.88	0.00275471
3517.52	0.00173429
3527.17	0.00132383
3536.81	0.00184309
3546.45	0.000686514
3556.09	0.00201635
3565.74	0.00149284
3575.38	0.000675312
3585.02	0.00115299
3594.66	0.00135559
3604.3	-6.30017e-05
3613.95	0.000718524
3623.59	-0.000528189
3633.23	-0.000817215
3642.87	-0.000954282
3652.52	-0.000751929
3662.16	-0.00107447
3671.8	-0.00085081
3681.44	-0.00242206
3691.09	-0.00115098
3700.73	-0.00112754
3710.37	-0.00152603
3720.01	-0.00156844
3729.66	-0.00150451
3739.3	-0.00204185
3748.94	-0.000383913
3758.58	-0.00161373
3768.22	-0.00115946
3777.87	-0.00162209
3787.51	-0.00252366
3797.15	-0.00156405
3806.79	-0.00184612
3816.44	-0.00101491
3826.08	-0.002249
3835.72	-0.00148496
3845.36	-0.00202287
3855.01	-0.0011566
3864.65	-0.00228541
3874.29	-0.00228659
3883.93	-0.00239749
3893.57	-0.00211582
3903.22	-0.00217913
3912.86	-0.00306808
3922.5	-0.00327988
3932.14	-0.00228472
3941.79	-0.00325009
3951.43	-0.00197236
3961.07	-0.00250991
3970.71	-0.00324017
3980.36	-0.00391981
3990	-0.00295874
3999.64	-0.00238858
