Measurement: Infrared, Infrared Data Processed
Mineral: Perovskite
Rruff sample: R050456
Ideal chemistry: CaTi^4+^O_3_
Locality: Magnet Cove, Arkansas, USA
Source: University of Arizona Mineral Museum
Description: Groups of black cubo-octahedral crystals
Measured chemistry: darker phase: (Ca_0.82_Fe^2+^_0.09_Na_0.07_Ce_0.01_La_0.01_)_Σ=1_(Ti_0.95_Nb^5+^_0.05_)_Σ=1_O_3_ ; gray phase: (Ca_0.89_Fe^2+^_0.05_Na_0.04_Ce_0.01_La_0.01_)_Σ=1_(Ti_0.98_Nb^5+^_0.02_)_Σ=1_O_3_
x	intensity
374.123	0.215333
383.765	0.201047
393.407	0.190532
403.05	0.191926
412.692	0.190326
422.334	0.188552
431.976	0.17586
441.619	0.154729
451.261	0.140884
460.904	0.121762
470.546	0.106461
480.188	0.0978003
489.83	0.101459
499.473	0.11609
509.115	0.148923
518.758	0.192813
528.4	0.229289
538.042	0.251608
547.684	0.26351
557.327	0.268549
566.969	0.262597
576.611	0.248459
586.254	0.23413
595.896	0.223019
605.538	0.204186
615.181	0.188179
624.823	0.178918
634.466	0.170846
644.108	0.162985
653.75	0.155515
663.393	0.147582
673.035	0.138651
682.677	0.128951
692.319	0.119216
701.962	0.109723
711.604	0.100538
721.246	0.0906848
730.889	0.0818877
740.531	0.0734044
750.173	0.0649664
759.816	0.0573773
769.458	0.0500697
779.101	0.0427501
788.743	0.0360955
798.385	0.0308702
808.028	0.0271594
817.67	0.0240691
827.312	0.0213367
836.955	0.0182732
846.597	0.0161321
856.239	0.013413
865.881	0.0115494
875.524	0.0125179
885.166	0.00832501
894.808	0.00633055
904.451	0.00557639
914.093	0.00545372
923.736	0.00515844
933.378	0.00492492
943.02	0.00454291
952.663	0.00438739
962.305	0.00588743
971.947	0.00403585
981.59	0.00475926
991.232	0.00629891
1000.87	0.00830498
1010.52	0.0108896
1020.16	0.015385
1029.8	0.0195229
1039.44	0.0263475
1049.09	0.0303495
1058.73	0.0272763
1068.37	0.0216298
1078.01	0.014777
1087.65	0.0152339
1097.3	0.0142558
1106.94	0.00977907
1116.58	0.00360117
1126.22	0.000216522
1135.87	-0.000350796
1145.51	-0.00044343
1155.15	-0.000350468
1164.79	-0.000123386
1174.44	-4.04315e-05
1184.08	4.35431e-05
1193.72	0.000496393
1203.36	0.00089588
1213.01	0.00167114
1222.65	0.00214407
1232.29	0.00270425
1241.93	0.0031845
1251.58	0.00375227
1261.22	0.0042755
1270.86	0.00520865
1280.5	0.00603479
1290.14	0.00679009
1299.79	0.00747749
1309.43	0.00850651
1319.07	0.00949879
1328.71	0.0103531
1338.36	0.0116485
1348	0.0128384
1357.64	0.0142551
1367.28	0.0164598
1376.92	0.0189298
1386.57	0.02212
1396.21	0.0265012
1405.85	0.0303399
1415.49	0.0348271
1425.14	0.0372073
1434.78	0.0385495
1444.42	0.0388985
1454.06	0.0391809
1463.71	0.0379311
1473.35	0.0368656
1482.99	0.0347021
1492.63	0.0331422
1502.28	0.0315733
1511.92	0.0296227
1521.56	0.0290365
1531.2	0.0269601
1540.85	0.0273191
1550.49	0.0255258
1560.13	0.0266178
1569.77	0.0253889
1579.41	0.0250629
1589.06	0.025023
1598.7	0.0255382
1608.34	0.0255144
1617.98	0.0263633
1627.63	0.0263194
1637.27	0.0271941
1646.91	0.0279112
1656.55	0.0274244
1666.19	0.0276074
1675.84	0.0283077
1685.48	0.0291175
1695.12	0.0294741
1704.77	0.0289808
1714.41	0.029233
1724.05	0.029329
1733.69	0.0307947
1743.33	0.0292449
1752.98	0.0298968
1762.62	0.0304173
1772.26	0.030975
1781.9	0.0311234
1791.55	0.0320747
1801.19	0.0316947
1810.83	0.0316942
1820.47	0.031858
1830.12	0.0322696
1839.76	0.0323109
1849.4	0.0324607
1859.04	0.0327472
1868.68	0.0334069
1878.33	0.0326914
1887.97	0.0332238
1897.61	0.0333404
1907.25	0.0340913
1916.9	0.0338759
1926.54	0.0338084
1936.18	0.0335275
1945.82	0.0335835
1955.46	0.0332981
1965.11	0.0347286
1974.75	0.0343147
1984.39	0.0355427
1994.04	0.035923
2003.68	0.0348094
2013.32	0.0344207
2022.96	0.0349503
2032.6	0.0340554
2042.25	0.0347971
2051.89	0.0358178
2061.53	0.0344543
2071.17	0.0350263
2080.82	0.0363549
2090.46	0.036099
2100.1	0.0357921
2109.74	0.0358817
2119.39	0.0354305
2129.03	0.0348668
2138.67	0.0340671
2148.31	0.03501
2157.95	0.0345545
2167.6	0.0383651
2177.24	0.0362787
2186.88	0.0345588
2196.52	0.0363799
2206.17	0.036341
2215.81	0.0354017
2225.45	0.0371507
2235.09	0.0374378
2244.74	0.035627
2254.38	0.0360423
2264.02	0.0354541
2273.66	0.0355884
2283.3	0.0355674
2292.95	0.0352806
2302.59	0.0354984
2312.23	0.0349301
2321.87	0.0361936
2331.52	0.0354831
2341.16	0.0349029
2350.8	0.034558
2360.44	0.0351312
2370.09	0.0340186
2379.73	0.0332858
2389.37	0.0329693
2399.01	0.0325403
2408.66	0.0324453
2418.3	0.032563
2427.94	0.0318653
2437.58	0.0316426
2447.22	0.0322839
2456.87	0.0316552
2466.51	0.0311692
2476.15	0.0313836
2485.79	0.0309351
2495.44	0.030461
2505.08	0.030774
2514.72	0.0301048
2524.36	0.0303559
2534.01	0.0296862
2543.65	0.0295126
2553.29	0.0296965
2562.93	0.0292668
2572.57	0.0294122
2582.22	0.0290181
2591.86	0.0285966
2601.5	0.028012
2611.14	0.0284857
2620.79	0.028651
2630.43	0.0286855
2640.07	0.0281481
2649.71	0.027926
2659.36	0.0276275
2669	0.0274655
2678.64	0.0270967
2688.28	0.0267941
2697.93	0.0265295
2707.57	0.0262941
2717.21	0.0259722
2726.85	0.0261007
2736.49	0.0256666
2746.14	0.0254576
2755.78	0.0252016
2765.42	0.0251674
2775.06	0.0247213
2784.71	0.0242888
2794.35	0.0241545
2803.99	0.0238898
2813.63	0.0239698
2823.28	0.0235712
2832.92	0.0241584
2842.56	0.0231935
2852.2	0.0224636
2861.84	0.022346
2871.49	0.0224528
2881.13	0.0218318
2890.77	0.0224995
2900.41	0.0218021
2910.06	0.0215561
2919.7	0.0203365
2929.34	0.0205612
2938.98	0.0197019
2948.62	0.0194031
2958.27	0.0194332
2967.91	0.0185759
2977.55	0.0179957
2987.2	0.0176821
2996.84	0.017491
3006.48	0.0174515
3016.12	0.0150715
3025.76	0.0168526
3035.41	0.0170456
3045.05	0.0162486
3054.69	0.0166357
3064.33	0.0162624
3073.98	0.0160755
3083.62	0.0156763
3093.26	0.0151493
3102.9	0.0148234
3112.55	0.015233
3122.19	0.0145277
3131.83	0.0150586
3141.47	0.0147714
3151.11	0.0145216
3160.76	0.0141072
3170.4	0.0135427
3180.04	0.0134525
3189.68	0.0139596
3199.33	0.0131981
3208.97	0.0127857
3218.61	0.0135246
3228.25	0.012813
3237.9	0.0121503
3247.54	0.0131138
3257.18	0.0115926
3266.82	0.0116759
3276.47	0.0114836
3286.11	0.0107457
3295.75	0.0109078
3305.39	0.0102932
3315.03	0.0105703
3324.68	0.00952379
3334.32	0.0105936
3343.96	0.0101891
3353.6	0.00931805
3363.25	0.00897718
3372.89	0.00891681
3382.53	0.00875729
3392.17	0.00851156
3401.82	0.00756767
3411.46	0.00743252
3421.1	0.00706145
3430.74	0.00730751
3440.39	0.00561763
3450.03	0.00517708
3459.67	0.00497873
3469.31	0.00397772
3478.95	0.00466688
3488.6	0.00468989
3498.24	0.00386177
3507.88	0.00364505
3517.52	0.00358495
3527.17	0.00367267
3536.81	0.00292654
3546.45	0.00248833
3556.09	0.00273408
3565.74	0.0023679
3575.38	0.000904381
3585.02	0.00109434
3594.66	0.00126012
3604.3	0.00105603
3613.95	0.000755101
3623.59	0.000782639
3633.23	-0.000842929
3642.87	-0.000785112
3652.52	-0.000582755
3662.16	-0.00114979
3671.8	-0.000243112
3681.44	-0.00197122
3691.09	0.00018771
3700.73	-0.00048691
3710.37	0.00027886
3720.01	-0.00188503
3729.66	-0.000525057
3739.3	-0.00159445
3748.94	0.000986666
3758.58	-0.000598431
3768.22	-0.00106671
3777.87	-0.00161788
3787.51	-0.001908
3797.15	-0.000901952
3806.79	-0.00115681
3816.44	-0.000538796
3826.08	-0.00153561
3835.72	-0.000167012
3845.36	-0.000129968
3855.01	0.000742689
3864.65	-0.000105753
3874.29	-7.65026e-05
3883.93	-0.000129014
3893.57	-0.000961006
3903.22	0.00081487
3912.86	-0.000753671
3922.5	-0.000265271
3932.14	0.000624031
3941.79	0.000653759
3951.43	-0.00140649
3961.07	-0.0010239
3970.71	-0.000292108
3980.36	-0.000604644
3990	0.00102863
3999.64	0.000587851
