Measurement: Infrared, Infrared Data Processed
Mineral: Petzite
Rruff sample: R070254
Ideal chemistry: Ag_3_AuTe_2_
Locality: Red Jacket mine, Baker County, Oregon, USA
Source: Michael Scott
Description: Steel grey metallic fragments with subconchoidal fracture, sample used as the standard for the ICDD powder diffraction file
Measured chemistry: Ag_3.00_Au_1.00_Te_2.00_ ; = lighter phase. The darker phase is: Ag_3.00_(Au_0.99_Cu_0.01_)_Î£=1_Te_2.00_
x	intensity
374.123	0.349582
383.765	0.358648
393.407	0.341669
403.05	0.359351
412.692	0.356573
422.334	0.370064
431.976	0.375064
441.619	0.380975
451.261	0.384444
460.904	0.392847
470.546	0.392208
480.188	0.399202
489.83	0.405098
499.473	0.413177
509.115	0.419015
518.758	0.420945
528.4	0.426711
538.042	0.431954
547.684	0.434678
557.327	0.442778
566.969	0.445534
576.611	0.447496
586.254	0.452306
595.896	0.456848
605.538	0.460012
615.181	0.466504
624.823	0.469708
634.466	0.476466
644.108	0.478373
653.75	0.482124
663.393	0.484503
673.035	0.488062
682.677	0.491644
692.319	0.495309
701.962	0.498336
711.604	0.50212
721.246	0.504724
730.889	0.509202
740.531	0.513984
750.173	0.517608
759.816	0.52031
769.458	0.523863
779.101	0.527922
788.743	0.530368
798.385	0.533071
808.028	0.537101
817.67	0.539856
827.312	0.544363
836.955	0.546526
846.597	0.550259
856.239	0.552222
865.881	0.556925
875.524	0.560498
885.166	0.562667
894.808	0.567167
904.451	0.570517
914.093	0.572811
923.736	0.575875
933.378	0.579244
943.02	0.582124
952.663	0.584847
962.305	0.588087
971.947	0.590444
981.59	0.593272
991.232	0.596685
1000.87	0.598987
1010.52	0.600702
1020.16	0.603956
1029.8	0.606523
1039.44	0.609364
1049.09	0.612128
1058.73	0.614611
1068.37	0.61717
1078.01	0.619689
1087.65	0.622062
1097.3	0.625368
1106.94	0.629433
1116.58	0.633015
1126.22	0.636723
1135.87	0.643
1145.51	0.649884
1155.15	0.650199
1164.79	0.650734
1174.44	0.652653
1184.08	0.656193
1193.72	0.661122
1203.36	0.664508
1213.01	0.666362
1222.65	0.668496
1232.29	0.6701
1241.93	0.671765
1251.58	0.673013
1261.22	0.674402
1270.86	0.676858
1280.5	0.679079
1290.14	0.681852
1299.79	0.68428
1309.43	0.686402
1319.07	0.688957
1328.71	0.691731
1338.36	0.694361
1348	0.696934
1357.64	0.699379
1367.28	0.701391
1376.92	0.703787
1386.57	0.706032
1396.21	0.707903
1405.85	0.71017
1415.49	0.712256
1425.14	0.714856
1434.78	0.718132
1444.42	0.720104
1454.06	0.722548
1463.71	0.724279
1473.35	0.725974
1482.99	0.728176
1492.63	0.730744
1502.28	0.733316
1511.92	0.735783
1521.56	0.738293
1531.2	0.73973
1540.85	0.742483
1550.49	0.744437
1560.13	0.747039
1569.77	0.748615
1579.41	0.750094
1589.06	0.752626
1598.7	0.754622
1608.34	0.757012
1617.98	0.758985
1627.63	0.761148
1637.27	0.763526
1646.91	0.76575
1656.55	0.766579
1666.19	0.768441
1675.84	0.770444
1685.48	0.772498
1695.12	0.774
1704.77	0.775355
1714.41	0.77761
1724.05	0.780113
1733.69	0.782158
1743.33	0.781898
1752.98	0.783612
1762.62	0.78566
1772.26	0.787175
1781.9	0.788683
1791.55	0.790442
1801.19	0.791242
1810.83	0.792331
1820.47	0.7931
1830.12	0.79339
1839.76	0.794539
1849.4	0.794724
1859.04	0.796422
1868.68	0.796819
1878.33	0.7971
1887.97	0.799066
1897.61	0.800668
1907.25	0.803613
1916.9	0.804504
1926.54	0.804349
1936.18	0.806485
1945.82	0.80928
1955.46	0.807004
1965.11	0.811443
1974.75	0.814508
1984.39	0.816785
1994.04	0.81887
2003.68	0.818039
2013.32	0.824471
2022.96	0.822004
2032.6	0.831345
2042.25	0.828914
2051.89	0.83315
2061.53	0.828931
2071.17	0.8338
2080.82	0.835371
2090.46	0.836535
2100.1	0.84026
2109.74	0.840693
2119.39	0.843026
2129.03	0.8485
2138.67	0.846569
2148.31	0.851611
2157.95	0.859255
2167.6	0.855012
2177.24	0.854679
2186.88	0.857675
2196.52	0.859566
2206.17	0.858659
2215.81	0.858039
2225.45	0.860089
2235.09	0.865194
2244.74	0.867915
2254.38	0.868472
2264.02	0.869342
2273.66	0.876458
2283.3	0.875666
2292.95	0.877475
2302.59	0.881192
2312.23	0.881674
2321.87	0.883205
2331.52	0.88458
2341.16	0.887435
2350.8	0.889432
2360.44	0.889845
2370.09	0.892266
2379.73	0.893425
2389.37	0.896065
2399.01	0.895202
2408.66	0.897128
2418.3	0.899468
2427.94	0.900836
2437.58	0.900446
2447.22	0.902525
2456.87	0.904046
2466.51	0.905581
2476.15	0.907148
2485.79	0.908061
2495.44	0.910455
2505.08	0.91206
2514.72	0.91237
2524.36	0.914206
2534.01	0.916698
2543.65	0.918212
2553.29	0.921512
2562.93	0.922306
2572.57	0.923833
2582.22	0.926026
2591.86	0.929249
2601.5	0.931338
2611.14	0.93418
2620.79	0.936963
2630.43	0.939783
2640.07	0.943313
2649.71	0.946456
2659.36	0.948995
2669	0.950352
2678.64	0.952377
2688.28	0.954115
2697.93	0.955558
2707.57	0.957404
2717.21	0.959068
2726.85	0.959864
2736.49	0.961588
2746.14	0.962911
2755.78	0.964595
2765.42	0.96574
2775.06	0.967369
2784.71	0.968306
2794.35	0.970454
2803.99	0.971257
2813.63	0.972444
2823.28	0.974137
2832.92	0.975367
2842.56	0.975625
2852.2	0.97142
2861.84	0.975538
2871.49	0.977253
2881.13	0.980629
2890.77	0.981796
2900.41	0.981827
2910.06	0.980976
2919.7	0.977769
2929.34	0.978058
2938.98	0.984175
2948.62	0.987388
2958.27	0.987866
2967.91	0.989898
2977.55	0.993575
2987.2	0.995072
2996.84	0.996903
3006.48	0.997762
3016.12	0.998972
3025.76	1.00114
3035.41	1.00241
3045.05	1.00419
3054.69	1.0061
3064.33	1.00806
3073.98	1.00881
3083.62	1.00987
3093.26	1.01167
3102.9	1.01352
3112.55	1.01479
3122.19	1.01555
3131.83	1.0173
3141.47	1.0189
3151.11	1.02128
3160.76	1.02194
3170.4	1.02377
3180.04	1.02465
3189.68	1.02594
3199.33	1.0267
3208.97	1.03093
3218.61	1.03147
3228.25	1.03349
3237.9	1.03453
3247.54	1.0361
3257.18	1.03739
3266.82	1.03958
3276.47	1.04024
3286.11	1.04235
3295.75	1.04433
3305.39	1.04555
3315.03	1.04674
3324.68	1.04778
3334.32	1.04982
3343.96	1.05278
3353.6	1.05248
3363.25	1.05513
3372.89	1.05552
3382.53	1.05709
3392.17	1.05813
3401.82	1.0595
3411.46	1.06056
3421.1	1.06177
3430.74	1.0636
3440.39	1.06549
3450.03	1.06788
3459.67	1.06829
3469.31	1.07011
3478.95	1.07157
3488.6	1.07248
3498.24	1.07352
3507.88	1.07591
3517.52	1.07816
3527.17	1.07833
3536.81	1.08065
3546.45	1.08223
3556.09	1.08312
3565.74	1.08468
3575.38	1.08486
3585.02	1.08672
3594.66	1.09045
3604.3	1.09002
3613.95	1.09258
3623.59	1.095
3633.23	1.09528
3642.87	1.09708
3652.52	1.10085
3662.16	1.10049
3671.8	1.10104
3681.44	1.10406
3691.09	1.10427
3700.73	1.10659
3710.37	1.10901
3720.01	1.11067
3729.66	1.11322
3739.3	1.11515
3748.94	1.11592
3758.58	1.1159
3768.22	1.11744
3777.87	1.11931
3787.51	1.11992
3797.15	1.12117
3806.79	1.12316
3816.44	1.12613
3826.08	1.12642
3835.72	1.12722
3845.36	1.1299
3855.01	1.13093
3864.65	1.13058
3874.29	1.13373
3883.93	1.13488
3893.57	1.13637
3903.22	1.13699
3912.86	1.13951
3922.5	1.13934
3932.14	1.14175
3941.79	1.14403
3951.43	1.14352
3961.07	1.14355
3970.71	1.14535
3980.36	1.14603
3990	1.14923
3999.64	1.1493
