Measurement: Infrared, Infrared Data Processed
Mineral: Phenakite
Rruff sample: R050137
Ideal chemistry: Be_2_SiO_4_
Locality: Mount Antero area, Chaffee County, Colorado, USA
Source: Dave Bunk Minerals
Description: Colorless tabular hexagonal crystal
Measured chemistry: Be_2.00_Si_1.00_O_4_
x	intensity
50.1401	0.00439588
52.0686	0.00685935
53.9971	0.00881922
55.9255	0.0106746
57.854	0.0121604
59.7825	0.0129882
61.7109	0.0115567
63.6394	0.0103986
65.5679	0.00952386
67.4963	0.0102785
69.4248	0.0107063
71.3533	0.0128482
73.2817	0.0135948
75.2102	0.0130648
77.1387	0.0130601
79.0671	0.0137853
80.9956	0.0137026
82.9241	0.0136884
84.8525	0.0144113
86.781	0.015035
88.7095	0.0154687
90.6379	0.0158806
92.5664	0.0165987
94.4948	0.017284
96.4233	0.0176254
98.3518	0.0176908
100.28	0.018205
102.209	0.0185897
104.137	0.0183951
106.066	0.018513
107.994	0.0192952
109.923	0.0201348
111.851	0.0207687
113.779	0.0207452
115.708	0.0205352
117.636	0.0213111
119.565	0.0214025
121.493	0.0212073
123.422	0.0215285
125.35	0.0226333
127.279	0.0232865
129.207	0.0236501
131.136	0.0243094
133.064	0.0249011
134.993	0.0256928
136.921	0.0264689
138.85	0.0266132
140.778	0.0267491
142.707	0.0266322
144.635	0.0268746
146.563	0.0271391
148.492	0.027466
150.42	0.0277964
152.349	0.0281008
154.277	0.02832
156.206	0.0289703
158.134	0.0299287
160.063	0.0298439
161.991	0.0296136
163.92	0.0302707
165.848	0.0309209
167.777	0.030961
169.705	0.0312745
171.633	0.0316944
173.562	0.0323932
175.49	0.0336312
177.419	0.0340522
179.347	0.0340261
181.276	0.0345047
183.204	0.0353059
185.133	0.0360357
187.061	0.0366277
188.99	0.0368356
190.918	0.0373138
192.847	0.0377067
194.775	0.0381334
196.704	0.0386483
198.632	0.039291
200.56	0.0399566
202.489	0.0412086
204.417	0.0410993
206.346	0.0411747
208.274	0.04182
210.203	0.0424415
212.131	0.0430444
214.06	0.0438712
215.988	0.0445728
217.917	0.0451972
219.845	0.0457611
221.774	0.0467853
223.702	0.0476178
225.631	0.0483717
227.559	0.0489391
229.488	0.0491099
231.416	0.0494516
233.344	0.0498508
235.273	0.050032
237.201	0.0500523
239.13	0.0500105
241.058	0.0498506
242.987	0.0501371
244.915	0.0510463
246.844	0.0513981
248.772	0.0515318
250.701	0.0518409
252.629	0.0526855
254.558	0.0534058
256.486	0.0536
258.414	0.0534567
260.343	0.0535985
262.271	0.054263
264.2	0.0552369
266.128	0.0561314
268.057	0.0563117
269.985	0.0560748
271.914	0.056619
273.842	0.0571149
275.771	0.0575309
277.699	0.0584586
279.628	0.059544
281.556	0.0599968
283.485	0.0602374
285.413	0.060276
287.341	0.0612496
289.27	0.0627547
291.198	0.0640629
293.127	0.0640736
295.055	0.0632764
296.984	0.0626938
298.912	0.063129
300.841	0.0640219
302.769	0.0649201
304.698	0.0653367
306.626	0.0659435
308.555	0.066556
310.483	0.0672237
312.411	0.068166
314.34	0.0695201
316.269	0.0697831
318.197	0.0700718
320.125	0.0711066
322.054	0.0722013
323.982	0.0731037
325.911	0.0744318
327.839	0.0755231
329.768	0.0762115
331.696	0.077117
333.625	0.078647
335.553	0.0803965
337.482	0.0822662
339.41	0.0839625
341.339	0.0860776
343.267	0.0884097
345.195	0.0914021
347.124	0.0941943
349.052	0.0961586
350.981	0.0949421
352.909	0.0886346
354.838	0.0787932
356.766	0.0669543
358.695	0.0533518
360.623	0.0499742
362.552	0.0546656
364.48	0.0603054
366.409	0.0662844
368.337	0.0704796
370.265	0.0675797
372.194	0.0657805
374.122	0.0692495
376.051	0.0722123
377.979	0.0740035
379.908	0.0750076
381.836	0.0759228
383.765	0.0765794
385.693	0.0771089
387.622	0.0776271
389.55	0.0786119
391.479	0.0799041
393.407	0.081001
395.336	0.0817736
397.264	0.082875
399.192	0.0843094
401.121	0.0857879
403.049	0.0873659
404.978	0.0890178
406.906	0.0910964
408.835	0.0932092
410.763	0.0955176
412.692	0.0985263
414.62	0.102298
416.549	0.10585
418.477	0.109235
420.406	0.111852
422.334	0.112353
424.262	0.109039
426.191	0.101114
428.12	0.0885993
430.048	0.0744902
431.976	0.0600937
433.905	0.0482902
435.833	0.0455323
437.762	0.0504925
439.69	0.0502989
441.619	0.0461533
443.547	0.0474207
445.476	0.050867
447.404	0.0542007
449.333	0.0575469
451.261	0.0610286
453.19	0.063666
455.118	0.0658031
457.046	0.0676503
458.975	0.0696651
460.903	0.071131
462.832	0.0719796
464.76	0.0726593
466.689	0.0733025
468.617	0.0738927
470.546	0.0747502
472.474	0.075491
474.403	0.0758774
476.331	0.07438
478.26	0.0738337
480.188	0.0749019
482.116	0.0763612
484.045	0.0775747
485.974	0.0784031
487.902	0.0793122
489.83	0.0803602
491.759	0.0813311
493.687	0.0822765
495.616	0.0832334
497.544	0.0842304
499.473	0.0851119
501.401	0.086138
503.33	0.0868747
505.258	0.087247
507.187	0.0879035
509.115	0.0883756
511.043	0.0884163
512.972	0.0887242
514.9	0.0896262
516.829	0.0906418
518.757	0.09069
520.686	0.090617
522.614	0.0916215
524.543	0.092782
526.471	0.0935782
528.4	0.0945698
530.328	0.0956055
532.257	0.0965454
534.185	0.0974857
536.114	0.0983085
538.042	0.0991665
539.971	0.100392
541.899	0.101394
543.827	0.102013
545.756	0.102325
547.684	0.103485
549.613	0.104735
551.541	0.10593
553.47	0.107267
555.398	0.108402
557.327	0.109009
559.255	0.109561
561.184	0.110769
563.112	0.11231
565.041	0.11324
566.969	0.114357
568.898	0.115844
570.826	0.117825
572.755	0.120091
574.683	0.121928
576.611	0.121669
578.54	0.119364
580.468	0.120347
582.397	0.1237
584.325	0.126641
586.254	0.12942
588.182	0.13172
590.111	0.133262
592.039	0.132633
593.968	0.127777
595.896	0.11694
597.824	0.100554
599.753	0.0847069
601.682	0.0784419
603.61	0.083031
605.538	0.0911265
607.467	0.0979875
609.395	0.103472
611.324	0.107725
613.252	0.11074
615.181	0.113435
617.109	0.114815
619.038	0.116807
620.966	0.119701
622.894	0.121791
624.823	0.123411
626.751	0.12476
628.68	0.126583
630.608	0.129426
632.537	0.13158
634.465	0.132822
636.394	0.133809
638.322	0.133952
640.251	0.132232
642.179	0.128115
644.108	0.124296
646.036	0.124744
647.965	0.127658
649.893	0.131018
651.822	0.133924
653.75	0.136028
655.678	0.138056
657.607	0.140229
659.535	0.141884
661.464	0.142956
663.392	0.144617
665.321	0.146019
667.249	0.147353
669.178	0.148716
671.106	0.150007
673.035	0.151109
674.963	0.152367
676.892	0.153532
678.82	0.154587
680.749	0.156086
682.677	0.156804
684.606	0.1565
686.534	0.156627
688.462	0.158001
690.391	0.159225
692.319	0.158227
694.248	0.156559
696.176	0.155201
698.105	0.151913
700.033	0.146846
