Measurement: Infrared, Infrared Data Processed
Mineral: Phenakite
Rruff sample: R050137
Ideal chemistry: Be_2_SiO_4_
Locality: Mount Antero area, Chaffee County, Colorado, USA
Source: Dave Bunk Minerals
Description: Colorless tabular hexagonal crystal
Measured chemistry: Be_2.00_Si_1.00_O_4_
x	intensity
374.123	0.195275
383.765	0.202483
393.407	0.205954
403.05	0.256205
412.692	0.290047
422.334	0.312177
431.976	0.0992262
441.619	0.0714475
451.261	0.115721
460.904	0.15376
470.546	0.160869
480.188	0.164404
489.83	0.180414
499.473	0.192964
509.115	0.210504
518.758	0.226332
528.4	0.244684
538.042	0.266807
547.684	0.27935
557.327	0.297778
566.969	0.320237
576.611	0.339344
586.254	0.363275
595.896	0.264425
605.538	0.192775
615.181	0.288625
624.823	0.325639
634.466	0.355426
644.108	0.311171
653.75	0.364019
663.393	0.381461
673.035	0.385426
682.677	0.377456
692.319	0.354041
701.962	0.301879
711.604	0.351527
721.246	0.309384
730.889	0.275192
740.531	0.252563
750.173	0.207829
759.816	0.172813
769.458	0.259823
779.101	0.234814
788.743	0.169298
798.385	0.123236
808.028	0.103513
817.67	0.0971626
827.312	0.0779955
836.955	0.0548829
846.597	0.0585099
856.239	0.0913216
865.881	0.153188
875.524	0.241078
885.166	0.3344
894.808	0.375819
904.451	0.325818
914.093	0.256557
923.736	0.292363
933.378	0.356458
943.02	0.303393
952.663	0.243278
962.305	0.195572
971.947	0.244851
981.59	0.219561
991.232	0.188818
1000.87	0.168773
1010.52	0.148386
1020.16	0.130619
1029.8	0.119392
1039.44	0.103083
1049.09	0.0903897
1058.73	0.0779442
1068.37	0.0648525
1078.01	0.0510936
1087.65	0.0371616
1097.3	0.0251462
1106.94	0.0173805
1116.58	0.0133401
1126.22	0.0110289
1135.87	0.00939255
1145.51	0.00811027
1155.15	0.00682728
1164.79	0.00595146
1174.44	0.00540656
1184.08	0.00466229
1193.72	0.00393007
1203.36	0.00309968
1213.01	0.00285467
1222.65	0.0023204
1232.29	0.00209516
1241.93	0.00192238
1251.58	0.00180781
1261.22	0.00197953
1270.86	0.00194265
1280.5	0.00336513
1290.14	0.00361505
1299.79	0.00373284
1309.43	0.00297319
1319.07	0.002443
1328.71	0.00263602
1338.36	0.00329918
1348	0.00355594
1357.64	0.00371205
1367.28	0.00335982
1376.92	0.00353642
1386.57	0.00327278
1396.21	0.00385354
1405.85	0.00364431
1415.49	0.00390743
1425.14	0.00380247
1434.78	0.00399435
1444.42	0.00403805
1454.06	0.00392212
1463.71	0.00398249
1473.35	0.0040858
1482.99	0.00314465
1492.63	0.00202139
1502.28	0.00105532
1511.92	0.000526018
1521.56	0.000553693
1531.2	2.31355e-05
1540.85	0.000611656
1550.49	-8.60458e-05
1560.13	0.00079106
1569.77	0.000308142
1579.41	0.000809379
1589.06	0.000804937
1598.7	0.00094735
1608.34	0.00126745
1617.98	0.00137516
1627.63	0.0010825
1637.27	0.00104322
1646.91	0.00139346
1656.55	0.00108415
1666.19	0.000824446
1675.84	0.000948357
1685.48	0.00127727
1695.12	0.0015395
1704.77	0.00100228
1714.41	0.000801328
1724.05	0.000692672
1733.69	0.000813677
1743.33	-0.000233791
1752.98	-0.000358463
1762.62	-0.000451787
1772.26	-0.000375613
1781.9	-0.00113855
1791.55	-0.00081134
1801.19	-0.000663129
1810.83	-0.000516312
1820.47	-0.000364669
1830.12	-0.000347871
1839.76	0.000175397
1849.4	-0.00032575
1859.04	-0.000984652
1868.68	-0.000494814
1878.33	-0.000388761
1887.97	-0.00059438
1897.61	-0.00110097
1907.25	-0.000965436
1916.9	-0.00128816
1926.54	-0.00103347
1936.18	-0.00182959
1945.82	-0.00257833
1955.46	-0.00194588
1965.11	-0.0044209
1974.75	-0.00451178
1984.39	-0.00267539
1994.04	-0.00314926
2003.68	-0.00319743
2013.32	-0.00345505
2022.96	-0.00327963
2032.6	-0.00360902
2042.25	-0.00268343
2051.89	-0.00166264
2061.53	-0.00175343
2071.17	-0.00212545
2080.82	-0.000853353
2090.46	-0.000756062
2100.1	-0.000842561
2109.74	-0.000628713
2119.39	-0.000739019
2129.03	-0.00245925
2138.67	-0.00201089
2148.31	-0.00151175
2157.95	-0.00127508
2167.6	0.00201739
2177.24	0.00103925
2186.88	0.00179342
2196.52	0.00132981
2206.17	0.00132965
2215.81	0.000771719
2225.45	0.00134651
2235.09	0.00129673
2244.74	0.0016481
2254.38	0.00153974
2264.02	0.00156315
2273.66	0.00173892
2283.3	0.00193404
2292.95	0.00239517
2302.59	0.001708
2312.23	0.00274406
2321.87	0.00370783
2331.52	0.00357204
2341.16	0.00349441
2350.8	0.00262067
2360.44	0.00435645
2370.09	0.00302031
2379.73	0.00270715
2389.37	0.00219151
2399.01	0.00281588
2408.66	0.00298198
2418.3	0.00304945
2427.94	0.00253819
2437.58	0.00166341
2447.22	0.00304006
2456.87	0.003074
2466.51	0.00324885
2476.15	0.00242239
2485.79	0.00331192
2495.44	0.00366586
2505.08	0.00286756
2514.72	0.00303224
2524.36	0.00223352
2534.01	0.00265539
2543.65	0.00222381
2553.29	0.00337571
2562.93	0.00291761
2572.57	0.00282236
2582.22	0.00241263
2591.86	0.00313955
2601.5	0.00325107
2611.14	0.00297518
2620.79	0.00326228
2630.43	0.00357361
2640.07	0.00363085
2649.71	0.00380195
2659.36	0.00345266
2669	0.00343192
2678.64	0.00340604
2688.28	0.00342786
2697.93	0.00353923
2707.57	0.00323041
2717.21	0.00372122
2726.85	0.00404616
2736.49	0.00342177
2746.14	0.00398731
2755.78	0.00401258
2765.42	0.00461278
2775.06	0.00415885
2784.71	0.00415608
2794.35	0.00502756
2803.99	0.00464139
2813.63	0.00498428
2823.28	0.0054928
2832.92	0.00516199
2842.56	0.0058261
2852.2	0.00585612
2861.84	0.00661108
2871.49	0.00615748
2881.13	0.00628878
2890.77	0.00638886
2900.41	0.00707925
2910.06	0.00716795
2919.7	0.00748711
2929.34	0.00756466
2938.98	0.00658438
2948.62	0.00578172
2958.27	0.00708404
2967.91	0.00611839
2977.55	0.00582427
2987.2	0.00530208
2996.84	0.00546905
3006.48	0.00517457
3016.12	0.00567868
3025.76	0.00567649
3035.41	0.00611991
3045.05	0.00595032
3054.69	0.00664941
3064.33	0.00587724
3073.98	0.00622407
3083.62	0.0068315
3093.26	0.00682268
3102.9	0.00550053
3112.55	0.00594257
3122.19	0.00695116
3131.83	0.00691943
3141.47	0.00718232
3151.11	0.00800419
3160.76	0.00752534
3170.4	0.00772903
3180.04	0.00756755
3189.68	0.00669431
3199.33	0.00784358
3208.97	0.00732413
3218.61	0.00814035
3228.25	0.00892097
3237.9	0.008197
3247.54	0.007718
3257.18	0.00761775
3266.82	0.00751897
3276.47	0.007587
3286.11	0.00744218
3295.75	0.00766514
3305.39	0.00690875
3315.03	0.0075067
3324.68	0.00816319
3334.32	0.00764477
3343.96	0.00747197
3353.6	0.00857196
3363.25	0.00783601
3372.89	0.00860394
3382.53	0.00815298
3392.17	0.00816661
3401.82	0.00883284
3411.46	0.00796254
3421.1	0.00759169
3430.74	0.00838624
3440.39	0.00899606
3450.03	0.00857248
3459.67	0.00903438
3469.31	0.0064121
3478.95	0.00747134
3488.6	0.00917446
3498.24	0.00700403
3507.88	0.00810569
3517.52	0.00735882
3527.17	0.00808422
3536.81	0.00745921
3546.45	0.00842968
3556.09	0.00915851
3565.74	0.00826812
3575.38	0.00653723
3585.02	0.00817121
3594.66	0.00716825
3604.3	0.00621119
3613.95	0.00674075
3623.59	0.00708434
3633.23	0.00714394
3642.87	0.00625475
3652.52	0.00760389
3662.16	0.00629395
3671.8	0.00594365
3681.44	0.00394204
3691.09	0.00628142
3700.73	0.00489275
3710.37	0.00484396
3720.01	0.00532097
3729.66	0.00509474
3739.3	0.00649619
3748.94	0.00784644
3758.58	0.0047725
3768.22	0.0065586
3777.87	0.00585565
3787.51	0.00550225
3797.15	0.00631667
3806.79	0.00636715
3816.44	0.00693976
3826.08	0.00553323
3835.72	0.00730413
3845.36	0.00634328
3855.01	0.00723309
3864.65	0.00747858
3874.29	0.00771
3883.93	0.00716187
3893.57	0.00635664
3903.22	0.00672201
3912.86	0.00708827
3922.5	0.00652037
3932.14	0.00639123
3941.79	0.00739225
3951.43	0.00749449
3961.07	0.00603425
3970.71	0.00851567
3980.36	0.00731901
3990	0.00724248
3999.64	0.00811949
