Measurement: Infrared, Infrared Data Processed
Mineral: Phlogopite
Rruff sample: R050068
Ideal chemistry: KMg_3_(Si_3_Al)O_10_(OH)_2_
Locality: S.W. Jasper County, Georgia, USA
Source: Rock Currier
Description: Dark brown micaceous single crystal
Measured chemistry: (K_0.94_Na_0.05_[box]_0.01_)(Mg_0.94_Fe_0.06_)_3_(Si_3.00_Al_1.00_)O_10_((OH)_0.53_F_0.47_)_2_
x	intensity
399.193	0.234244
408.835	0.252665
418.477	0.258593
428.12	0.274636
437.762	0.299567
447.404	0.309575
457.047	0.293211
466.689	0.249912
476.331	0.190485
485.974	0.165494
495.616	0.150748
505.258	0.133218
514.901	0.116939
524.543	0.103457
534.185	0.0957914
543.828	0.0984518
553.47	0.110628
563.112	0.130647
572.755	0.153302
582.397	0.175678
592.039	0.196072
601.682	0.209069
611.324	0.213842
620.966	0.203909
630.609	0.197392
640.251	0.214868
649.893	0.214068
659.536	0.204732
669.178	0.19328
678.82	0.182374
688.463	0.171288
698.105	0.156743
707.747	0.152672
717.39	0.149477
727.032	0.143995
736.674	0.133891
746.317	0.124525
755.959	0.118922
765.601	0.115362
775.244	0.112121
784.886	0.107446
794.528	0.104197
804.171	0.103451
813.813	0.0972873
823.455	0.0858696
833.098	0.0813254
842.74	0.0771671
852.382	0.072153
862.025	0.065939
871.667	0.0620481
881.309	0.0625425
890.952	0.068522
900.594	0.0785864
910.236	0.0899418
919.879	0.103811
929.521	0.122023
939.163	0.15085
948.806	0.192015
958.448	0.247939
968.09	0.292339
977.733	0.29634
987.375	0.286433
997.017	0.296491
1006.66	0.290949
1016.3	0.240885
1025.94	0.168311
1035.59	0.124329
1045.23	0.0974042
1054.87	0.0816609
1064.51	0.0725766
1074.16	0.0665157
1083.8	0.0583657
1093.44	0.0488979
1103.08	0.0386782
1112.72	0.0300284
1122.37	0.0248107
1132.01	0.0215445
1141.65	0.0195406
1151.3	0.0180017
1160.94	0.016805
1170.58	0.0146355
1180.22	0.0124963
1189.86	0.011244
1199.51	0.0100571
1209.15	0.00875223
1218.79	0.00758191
1228.43	0.00673843
1238.08	0.00604363
1247.72	0.00550848
1257.36	0.00538175
1267	0.00508506
1276.64	0.00470232
1286.29	0.00479329
1295.93	0.00489777
1305.57	0.00464901
1315.21	0.00447696
1324.86	0.00477047
1334.5	0.00448119
1344.14	0.0044355
1353.78	0.00502635
1363.43	0.00481096
1373.07	0.00605064
1382.71	0.00514411
1392.35	0.00470313
1401.99	0.0050471
1411.64	0.00550243
1421.28	0.00548937
1430.92	0.00547422
1440.57	0.00521709
1450.21	0.00568822
1459.85	0.0057382
1469.49	0.0041761
1479.13	0.00356848
1488.78	0.00338902
1498.42	0.00360749
1508.06	0.00387477
1517.7	0.00452964
1527.35	0.00501732
1536.99	0.00553439
1546.63	0.00635885
1556.27	0.0067323
1565.91	0.0063488
1575.56	0.00637287
1585.2	0.0058193
1594.84	0.00555398
1604.48	0.00568967
1614.13	0.0057788
1623.77	0.00575462
1633.41	0.00621979
1643.05	0.00636573
1652.7	0.00602805
1662.34	0.00543958
1671.98	0.00473387
1681.62	0.00469005
1691.27	0.00418925
1700.91	0.00343985
1710.55	0.00281028
1720.19	0.00323329
1729.84	0.00306143
1739.48	0.00191329
1749.12	0.00190281
1758.76	0.00318292
1768.4	0.00330162
1778.05	0.00291227
1787.69	0.00300618
1797.33	0.00326086
1806.97	0.00329388
1816.62	0.00299434
1826.26	0.00316142
1835.9	0.00305643
1845.54	0.00256675
1855.18	0.00260064
1864.83	0.00184986
1874.47	0.00195869
1884.11	0.00213407
1893.75	0.00194589
1903.4	0.00132669
1913.04	0.000659121
1922.68	0.000474737
1932.32	-0.00156803
1941.97	-0.00132371
1951.61	-0.00265627
1961.25	-0.0034273
1970.89	-0.00563229
1980.54	-0.00421854
1990.18	-0.00432422
1999.82	-0.00416659
2009.46	-0.00515261
2019.11	-0.00547915
2028.75	-0.00542563
2038.39	-0.00580835
2048.03	-0.00207155
2057.67	-0.000213075
2067.32	-0.000884269
2076.96	-0.000493039
2086.6	0.00151375
2096.24	0.000697907
2105.89	0.00277342
2115.53	0.00234908
2125.17	0.00107939
2134.81	-0.000746907
2144.45	-0.000274892
2154.1	-0.000437349
2163.74	0.000860121
2173.38	0.000943351
2183.02	0.00224589
2192.67	0.00026253
2202.31	0.000389203
2211.95	0.00198285
2221.59	0.0013566
2231.24	0.00395878
2240.88	0.00323167
2250.52	0.00248498
2260.16	0.00244588
2269.8	0.00320332
2279.45	0.00393078
2289.09	0.00515454
2298.73	0.00400435
2308.38	0.00463403
2318.02	0.00477656
2327.66	0.00433989
2337.3	0.00444971
2346.94	0.00416337
2356.59	0.00485425
2366.23	0.00479001
2375.87	0.0041831
2385.51	0.00420438
2395.16	0.00412194
2404.8	0.00402345
2414.44	0.00390974
2424.08	0.00470502
2433.72	0.00448557
2443.37	0.00547355
2453.01	0.00469059
2462.65	0.00480276
2472.29	0.00440432
2481.94	0.00516803
2491.58	0.00483581
2501.22	0.0050906
2510.86	0.00507554
2520.51	0.00553752
2530.15	0.00428576
2539.79	0.00524132
2549.43	0.00590641
2559.07	0.00526285
2568.72	0.00551883
2578.36	0.00436168
2588	0.00573024
2597.64	0.00572367
2607.29	0.00515775
2616.93	0.00501382
2626.57	0.00587757
2636.21	0.00544766
2645.86	0.00601247
2655.5	0.0058264
2665.14	0.0055026
2674.78	0.00537624
2684.43	0.00566675
2694.07	0.00569091
2703.71	0.00550902
2713.35	0.00653053
2722.99	0.0060857
2732.64	0.00613504
2742.28	0.0070384
2751.92	0.00651852
2761.56	0.00635159
2771.21	0.00620735
2780.85	0.00652958
2790.49	0.00754811
2800.13	0.00668263
2809.78	0.00809825
2819.42	0.00734312
2829.06	0.00834594
2838.7	0.0101394
2848.34	0.00715877
2857.99	0.00691823
2867.63	0.00936694
2877.27	0.00945048
2886.91	0.00922164
2896.56	0.00935203
2906.2	0.00986828
2915.84	0.0104353
2925.48	0.00890055
2935.13	0.00802819
2944.77	0.0100001
2954.41	0.0118391
2964.05	0.0107792
2973.7	0.00818925
2983.34	0.00742793
2992.98	0.00800317
3002.62	0.00775001
3012.26	0.00787939
3021.91	0.00911431
3031.55	0.00863821
3041.19	0.0100585
3050.83	0.0103257
3060.48	0.00861196
3070.12	0.0104075
3079.76	0.0110069
3089.4	0.0109344
3099.05	0.0112176
3108.69	0.0116213
3118.33	0.0121246
3127.97	0.0126422
3137.61	0.0127052
3147.26	0.0126981
3156.9	0.0127146
3166.54	0.0134899
3176.18	0.0140665
3185.83	0.0135258
3195.47	0.0141205
3205.11	0.0148766
3214.75	0.0154315
3224.4	0.0140816
3234.04	0.0152568
3243.68	0.016532
3253.32	0.0160243
3262.97	0.0158921
3272.61	0.0153876
3282.25	0.0157595
3291.89	0.0169829
3301.53	0.0167686
3311.18	0.0166893
3320.82	0.0186134
3330.46	0.0182859
3340.1	0.0185696
3349.75	0.0184794
3359.39	0.0187519
3369.03	0.0184138
3378.67	0.0193956
3388.32	0.0168804
3397.96	0.0185345
3407.6	0.01928
3417.24	0.0185751
3426.89	0.018432
3436.53	0.0180189
3446.17	0.0180273
3455.81	0.0183958
3465.45	0.0202789
3475.1	0.0183656
3484.74	0.0179377
3494.38	0.0222886
3504.02	0.0191153
3513.67	0.0194535
3523.31	0.0178666
3532.95	0.0188495
3542.59	0.0181228
3552.24	0.0169146
3561.88	0.0181482
3571.52	0.016801
3581.16	0.0171165
3590.8	0.017063
3600.45	0.0141096
3610.09	0.0163406
3619.73	0.0151795
3629.37	0.0101521
3639.02	0.0114332
3648.66	0.0129321
3658.3	0.0131228
3667.94	0.0117541
3677.59	0.00948513
3687.23	0.0102088
3696.87	0.00989893
3706.51	0.0124119
3716.16	0.0099895
3725.8	0.00865096
3735.44	0.00875383
3745.08	0.00816062
3754.72	0.00799101
3764.37	0.00771743
3774.01	0.0078207
3783.65	0.00986652
3793.29	0.00817462
3802.94	0.00771119
3812.58	0.00554343
3822.22	0.00748618
3831.86	0.0080292
3841.51	0.00745964
3851.15	0.0103241
3860.79	0.00881173
3870.43	0.00595523
3880.07	0.00850329
3889.72	0.00556476
3899.36	0.00877484
3909	0.00990339
3918.64	0.00793818
3928.29	0.00732254
3937.93	0.00910712
3947.57	0.00800162
3957.21	0.009065
3966.86	0.00778888
3976.5	0.00821821
3986.14	0.00979045
3995.78	0.0112586
