Measurement: Infrared, Infrared Data Processed
Mineral: Phosphophyllite
Rruff sample: R050224
Ideal chemistry: Zn^2+^_2_Fe^2+^(P^5+^O_4_)_2_4H_2_O
Locality: Unificada mine, Cerro Rico, Potosi, Bolivia
Source: Marcus Origlieri
Description: Pale blue single crystal fragments
Measured chemistry: Zn_2.00_Fe^2+^_1.00_(P_1.00_O_4_)_2_Â·4H_2_O
x	intensity
374.123	0.108076
383.765	0.128687
393.407	0.113915
403.05	0.0909787
412.692	0.115128
422.334	0.124909
431.976	0.138954
441.619	0.139981
451.261	0.140169
460.904	0.135009
470.546	0.136179
480.188	0.146574
489.83	0.159848
499.473	0.182271
509.115	0.194551
518.758	0.205434
528.4	0.214326
538.042	0.220822
547.684	0.227735
557.327	0.222974
566.969	0.230646
576.611	0.207041
586.254	0.157676
595.896	0.125268
605.538	0.114602
615.181	0.133651
624.823	0.176253
634.466	0.203358
644.108	0.151597
653.75	0.111781
663.393	0.0950631
673.035	0.0879978
682.677	0.078946
692.319	0.0777918
701.962	0.0760557
711.604	0.0746947
721.246	0.0704864
730.889	0.0681258
740.531	0.0661258
750.173	0.0657351
759.816	0.0656583
769.458	0.0636038
779.101	0.0620901
788.743	0.0598976
798.385	0.0569091
808.028	0.0566254
817.67	0.0576014
827.312	0.0625294
836.955	0.0687352
846.597	0.0766455
856.239	0.0832983
865.881	0.0933453
875.524	0.110994
885.166	0.142355
894.808	0.183545
904.451	0.241496
914.093	0.319958
923.736	0.406545
933.378	0.414146
943.02	0.342291
952.663	0.238874
962.305	0.147258
971.947	0.141432
981.59	0.198885
991.232	0.345224
1000.87	0.432397
1010.52	0.339877
1020.16	0.29304
1029.8	0.335522
1039.44	0.266022
1049.09	0.254843
1058.73	0.254948
1068.37	0.247372
1078.01	0.222838
1087.65	0.193238
1097.3	0.16711
1106.94	0.171049
1116.58	0.244258
1126.22	0.273704
1135.87	0.22309
1145.51	0.163082
1155.15	0.108305
1164.79	0.0625743
1174.44	0.0359253
1184.08	0.0262754
1193.72	0.0206771
1203.36	0.0196668
1213.01	0.0157053
1222.65	0.0171796
1232.29	0.0153712
1241.93	0.015407
1251.58	0.0143342
1261.22	0.0142586
1270.86	0.0159811
1280.5	0.0139959
1290.14	0.0142353
1299.79	0.013453
1309.43	0.0130936
1319.07	0.012942
1328.71	0.0124088
1338.36	0.0137508
1348	0.0141335
1357.64	0.0144282
1367.28	0.0149533
1376.92	0.0160867
1386.57	0.015543
1396.21	0.0158988
1405.85	0.0162592
1415.49	0.0184472
1425.14	0.0171291
1434.78	0.0187292
1444.42	0.0194886
1454.06	0.0181848
1463.71	0.0202953
1473.35	0.0200514
1482.99	0.0191598
1492.63	0.019067
1502.28	0.0206258
1511.92	0.0202909
1521.56	0.0203314
1531.2	0.0222218
1540.85	0.0237082
1550.49	0.0250416
1560.13	0.0262572
1569.77	0.0297612
1579.41	0.036335
1589.06	0.0416334
1598.7	0.0523035
1608.34	0.0560199
1617.98	0.0488135
1627.63	0.0449783
1637.27	0.0434278
1646.91	0.0383757
1656.55	0.0342323
1666.19	0.0346627
1675.84	0.0361475
1685.48	0.0312896
1695.12	0.0233263
1704.77	0.0199064
1714.41	0.0183207
1724.05	0.0172493
1733.69	0.01493
1743.33	0.0150264
1752.98	0.0140592
1762.62	0.0144374
1772.26	0.0147835
1781.9	0.014704
1791.55	0.0121626
1801.19	0.0149099
1810.83	0.0145847
1820.47	0.01437
1830.12	0.014762
1839.76	0.0140321
1849.4	0.0143614
1859.04	0.0182577
1868.68	0.0165245
1878.33	0.0185432
1887.97	0.015289
1897.61	0.015878
1907.25	0.0178654
1916.9	0.0181593
1926.54	0.0171779
1936.18	0.014351
1945.82	0.0221148
1955.46	0.0210877
1965.11	0.0206274
1974.75	0.0221616
1984.39	0.0266316
1994.04	0.00912498
2003.68	0.0181656
2013.32	0.0192128
2022.96	0.0137262
2032.6	0.026599
2042.25	0.0267398
2051.89	0.0251717
2061.53	0.0181684
2071.17	0.0183105
2080.82	0.0198843
2090.46	0.0297788
2100.1	0.0189618
2109.74	0.0287363
2119.39	0.0207787
2129.03	0.0206804
2138.67	0.0267421
2148.31	0.0204514
2157.95	0.0265623
2167.6	0.0235254
2177.24	0.0241413
2186.88	0.0285645
2196.52	0.0275444
2206.17	0.0258452
2215.81	0.0260405
2225.45	0.0275854
2235.09	0.0271654
2244.74	0.0310408
2254.38	0.0238338
2264.02	0.0260278
2273.66	0.0217709
2283.3	0.0275001
2292.95	0.0259583
2302.59	0.0302559
2312.23	0.0239634
2321.87	0.0270836
2331.52	0.0300008
2341.16	0.0237171
2350.8	0.0289392
2360.44	0.0281131
2370.09	0.0290675
2379.73	0.0298131
2389.37	0.0264254
2399.01	0.0220257
2408.66	0.0262981
2418.3	0.0239195
2427.94	0.0262383
2437.58	0.0278987
2447.22	0.0284738
2456.87	0.0282626
2466.51	0.0248041
2476.15	0.0301918
2485.79	0.0286027
2495.44	0.0284844
2505.08	0.0308029
2514.72	0.0290842
2524.36	0.0337121
2534.01	0.0268462
2543.65	0.0258991
2553.29	0.0311047
2562.93	0.032197
2572.57	0.0264093
2582.22	0.0274885
2591.86	0.0341411
2601.5	0.0330644
2611.14	0.0293397
2620.79	0.0344828
2630.43	0.0324832
2640.07	0.0352437
2649.71	0.0349898
2659.36	0.0363998
2669	0.0327022
2678.64	0.035923
2688.28	0.0330393
2697.93	0.033502
2707.57	0.0345008
2717.21	0.0399694
2726.85	0.0404846
2736.49	0.0403547
2746.14	0.0396196
2755.78	0.0409084
2765.42	0.0425689
2775.06	0.0429877
2784.71	0.0416236
2794.35	0.0441056
2803.99	0.0463533
2813.63	0.0479044
2823.28	0.0488688
2832.92	0.0484242
2842.56	0.0544893
2852.2	0.0534138
2861.84	0.0547637
2871.49	0.0552611
2881.13	0.0564776
2890.77	0.0583273
2900.41	0.0627565
2910.06	0.061652
2919.7	0.0714567
2929.34	0.071121
2938.98	0.0723604
2948.62	0.0759062
2958.27	0.073663
2967.91	0.0739268
2977.55	0.0807915
2987.2	0.0786048
2996.84	0.0843702
3006.48	0.0922484
3016.12	0.0912975
3025.76	0.093233
3035.41	0.099894
3045.05	0.0994943
3054.69	0.108691
3064.33	0.113601
3073.98	0.113844
3083.62	0.120789
3093.26	0.124548
3102.9	0.136541
3112.55	0.139508
3122.19	0.137765
3131.83	0.143562
3141.47	0.145257
3151.11	0.145131
3160.76	0.146019
3170.4	0.146492
3180.04	0.147499
3189.68	0.144997
3199.33	0.143909
3208.97	0.147117
3218.61	0.145988
3228.25	0.146177
3237.9	0.147742
3247.54	0.151515
3257.18	0.15015
3266.82	0.144683
3276.47	0.142795
3286.11	0.147568
3295.75	0.150741
3305.39	0.148486
3315.03	0.141299
3324.68	0.140649
3334.32	0.145478
3343.96	0.138909
3353.6	0.139809
3363.25	0.143456
3372.89	0.137342
3382.53	0.140305
3392.17	0.135206
3401.82	0.134457
3411.46	0.130525
3421.1	0.126688
3430.74	0.122333
3440.39	0.118318
3450.03	0.107725
3459.67	0.121814
3469.31	0.110371
3478.95	0.1009
3488.6	0.106944
3498.24	0.0941995
3507.88	0.0923452
3517.52	0.0894566
3527.17	0.0934888
3536.81	0.0924006
3546.45	0.0994407
3556.09	0.116975
3565.74	0.12753
3575.38	0.105201
3585.02	0.0800895
3594.66	0.0540836
3604.3	0.0464786
3613.95	0.0344716
3623.59	0.0330658
3633.23	0.0355292
3642.87	0.0327084
3652.52	0.0353769
3662.16	0.0312291
3671.8	0.0241047
3681.44	0.0369269
3691.09	0.0291615
3700.73	0.0205661
3710.37	0.0213767
3720.01	0.0278095
3729.66	0.0300432
3739.3	0.0286211
3748.94	0.0216248
3758.58	0.0326087
3768.22	0.0310913
3777.87	0.0264492
3787.51	0.0269612
3797.15	0.0242904
3806.79	0.0206223
3816.44	0.0277741
3826.08	0.025922
3835.72	0.0322968
3845.36	0.0363489
3855.01	0.0268728
3864.65	0.0303066
3874.29	0.0232409
3883.93	0.0233592
3893.57	0.035804
3903.22	0.0291645
3912.86	0.028666
3922.5	0.0233501
3932.14	0.032882
3941.79	0.0277173
3951.43	0.0359047
3961.07	0.0295384
3970.71	0.0266092
3980.36	0.0254816
3990	0.0268926
3999.64	0.0253391
