Measurement: Infrared, Infrared Data Processed
Mineral: Phosgenite
Rruff sample: R050640
Ideal chemistry: Pb^2+^_2_CO_3_Cl_2_
Locality: Monte Poni, Sardinia, Italy
Source: University of Arizona Mineral Museum
Description: Gray rectangular prismatic crystal
Measured chemistry: Pb_2.00_(CO_3_)Cl_2.03_ ; C estimated by difference
x	intensity
399.193	0.0179193
408.835	0.0218147
418.477	0.0235535
428.12	0.0271389
437.762	0.0259349
447.404	0.0279487
457.047	0.0333903
466.689	0.0400773
476.331	0.0466758
485.974	0.0418815
495.616	0.0417825
505.258	0.0453794
514.901	0.0508623
524.543	0.0565671
534.185	0.0606721
543.828	0.0619433
553.47	0.0649166
563.112	0.0679123
572.755	0.0704862
582.397	0.0750372
592.039	0.0837007
601.682	0.0875688
611.324	0.0826789
620.966	0.088306
630.609	0.0982755
640.251	0.10763
649.893	0.115953
659.536	0.0735051
669.178	0.0831298
678.82	0.0913556
688.463	0.097906
698.105	0.105667
707.747	0.11362
717.39	0.124363
727.032	0.13833
736.674	0.161572
746.317	0.211831
755.959	0.371646
765.601	0.0788296
775.244	0.0742356
784.886	0.0884498
794.528	0.101428
804.171	0.115853
813.813	0.128902
823.455	0.165308
833.098	0.330202
842.74	0.0536511
852.382	0.0846578
862.025	0.100524
871.667	0.111709
881.309	0.121014
890.952	0.128803
900.594	0.136781
910.236	0.143779
919.879	0.149669
929.521	0.155735
939.163	0.162477
948.806	0.169193
958.448	0.17786
968.09	0.18776
977.733	0.196396
987.375	0.208345
997.017	0.217276
1006.66	0.224339
1016.3	0.232086
1025.94	0.239464
1035.59	0.242817
1045.23	0.244788
1054.87	0.249589
1064.51	0.2443
1074.16	0.241124
1083.8	0.240495
1093.44	0.241273
1103.08	0.241747
1112.72	0.242126
1122.37	0.247529
1132.01	0.247831
1141.65	0.247094
1151.3	0.253098
1160.94	0.263071
1170.58	0.271402
1180.22	0.277909
1189.86	0.283947
1199.51	0.292354
1209.15	0.301842
1218.79	0.313341
1228.43	0.327595
1238.08	0.343848
1247.72	0.363992
1257.36	0.387676
1267	0.413724
1276.64	0.439804
1286.29	0.469423
1295.93	0.502042
1305.57	0.535687
1315.21	0.574192
1324.86	0.614074
1334.5	0.620502
1344.14	0.556099
1353.78	0.432903
1363.43	0.323228
1373.07	0.266509
1382.71	0.242544
1392.35	0.239121
1401.99	0.248875
1411.64	0.263304
1421.28	0.279216
1430.92	0.302898
1440.57	0.33185
1450.21	0.36083
1459.85	0.387008
1469.49	0.411545
1479.13	0.430744
1488.78	0.441858
1498.42	0.440957
1508.06	0.425125
1517.7	0.393802
1527.35	0.350136
1536.99	0.296499
1546.63	0.238268
1556.27	0.183645
1565.91	0.1421
1575.56	0.113994
1585.2	0.0966118
1594.84	0.0866754
1604.48	0.0819987
1614.13	0.0800431
1623.77	0.0792597
1633.41	0.0798803
1643.05	0.0803884
1652.7	0.0814974
1662.34	0.0832106
1671.98	0.0850167
1681.62	0.0874335
1691.27	0.0899091
1700.91	0.0947449
1710.55	0.109489
1720.19	0.100554
1729.84	0.0967348
1739.48	0.0978713
1749.12	0.0998124
1758.76	0.104095
1768.4	0.10735
1778.05	0.111007
1787.69	0.113673
1797.33	0.118658
1806.97	0.124781
1816.62	0.145386
1826.26	0.129749
1835.9	0.122891
1845.54	0.125835
1855.18	0.127336
1864.83	0.12984
1874.47	0.132945
1884.11	0.136378
1893.75	0.138082
1903.4	0.139953
1913.04	0.141424
1922.68	0.14331
1932.32	0.145597
1941.97	0.148392
1951.61	0.14881
1961.25	0.151783
1970.89	0.150316
1980.54	0.154376
1990.18	0.158178
1999.82	0.157322
2009.46	0.162377
2019.11	0.162028
2028.75	0.168527
2038.39	0.168202
2048.03	0.168978
2057.67	0.173213
2067.32	0.173797
2076.96	0.176632
2086.6	0.178033
2096.24	0.179806
2105.89	0.183206
2115.53	0.181186
2125.17	0.183405
2134.81	0.179555
2144.45	0.177705
2154.1	0.181936
2163.74	0.187091
2173.38	0.18634
2183.02	0.1925
2192.67	0.191397
2202.31	0.19451
2211.95	0.196659
2221.59	0.197051
2231.24	0.199977
2240.88	0.204222
2250.52	0.205416
2260.16	0.207046
2269.8	0.208807
2279.45	0.212779
2289.09	0.214225
2298.73	0.216736
2308.38	0.217005
2318.02	0.218363
2327.66	0.220543
2337.3	0.222176
2346.94	0.223461
2356.59	0.226154
2366.23	0.227565
2375.87	0.230936
2385.51	0.232724
2395.16	0.234048
2404.8	0.234357
2414.44	0.23484
2424.08	0.238541
2433.72	0.238255
2443.37	0.240798
2453.01	0.242647
2462.65	0.245401
2472.29	0.245882
2481.94	0.245384
2491.58	0.243298
2501.22	0.24528
2510.86	0.24651
2520.51	0.245157
2530.15	0.243694
2539.79	0.246096
2549.43	0.2469
2559.07	0.249709
2568.72	0.250275
2578.36	0.252408
2588	0.252582
2597.64	0.254823
2607.29	0.256006
2616.93	0.257045
2626.57	0.259783
2636.21	0.259727
2645.86	0.262027
2655.5	0.263441
2665.14	0.264946
2674.78	0.265515
2684.43	0.268091
2694.07	0.269448
2703.71	0.271175
2713.35	0.276578
2722.99	0.278022
2732.64	0.278711
2742.28	0.281298
2751.92	0.283792
2761.56	0.284718
2771.21	0.285449
2780.85	0.287388
2790.49	0.287784
2800.13	0.289856
2809.78	0.290183
2819.42	0.292794
2829.06	0.292162
2838.7	0.294624
2848.34	0.291932
2857.99	0.292871
2867.63	0.295033
2877.27	0.294445
2886.91	0.296154
2896.56	0.295562
2906.2	0.296948
2915.84	0.2973
2925.48	0.298272
2935.13	0.296653
2944.77	0.299221
2954.41	0.299341
2964.05	0.30223
2973.7	0.304137
2983.34	0.304226
2992.98	0.306307
3002.62	0.306779
3012.26	0.309226
3021.91	0.310666
3031.55	0.312529
3041.19	0.315108
3050.83	0.31599
3060.48	0.317539
3070.12	0.317561
3079.76	0.322389
3089.4	0.32431
3099.05	0.324255
3108.69	0.326793
3118.33	0.330744
3127.97	0.331069
3137.61	0.334319
3147.26	0.336153
3156.9	0.340206
3166.54	0.341662
3176.18	0.341834
3185.83	0.343138
3195.47	0.346034
3205.11	0.343904
3214.75	0.3473
3224.4	0.348695
3234.04	0.350958
3243.68	0.353433
3253.32	0.353828
3262.97	0.354431
3272.61	0.357368
3282.25	0.358722
3291.89	0.362333
3301.53	0.363288
3311.18	0.36578
3320.82	0.367347
3330.46	0.366421
3340.1	0.368788
3349.75	0.371327
3359.39	0.368752
3369.03	0.373555
3378.67	0.375105
3388.32	0.375078
3397.96	0.377084
3407.6	0.377001
3417.24	0.378978
3426.89	0.379109
3436.53	0.382826
3446.17	0.382837
3455.81	0.38257
3465.45	0.383956
3475.1	0.386688
3484.74	0.386748
3494.38	0.388935
3504.02	0.392379
3513.67	0.391306
3523.31	0.390146
3532.95	0.393485
3542.59	0.397238
3552.24	0.395688
3561.88	0.398448
3571.52	0.39947
3581.16	0.401252
3590.8	0.400518
3600.45	0.401216
3610.09	0.405594
3619.73	0.413763
3629.37	0.408728
3639.02	0.410496
3648.66	0.414847
3658.3	0.412061
3667.94	0.411248
3677.59	0.412888
3687.23	0.413918
3696.87	0.417154
3706.51	0.417559
3716.16	0.417707
3725.8	0.42521
3735.44	0.417347
3745.08	0.417817
3754.72	0.428617
3764.37	0.427946
3774.01	0.432665
3783.65	0.429473
3793.29	0.430711
3802.94	0.430526
3812.58	0.434461
3822.22	0.43631
3831.86	0.435445
3841.51	0.439569
3851.15	0.439699
3860.79	0.442077
3870.43	0.44182
3880.07	0.442906
3889.72	0.445923
3899.36	0.441974
3909	0.450549
3918.64	0.454836
3928.29	0.450756
3937.93	0.458868
3947.57	0.458885
3957.21	0.458932
3966.86	0.453672
3976.5	0.459139
3986.14	0.461974
3995.78	0.458588
