Measurement: Infrared, Infrared Data Processed
Mineral: Plumbogummite
Rruff sample: R050458
Ideal chemistry: Pb^2+^Al_3_(PO_4_)(PO_3_OH)(OH)_6_
Locality: Cornwall, England
Source: University of Arizona Mineral Museum
Description: Grayish blue botryoidal crust associated with yellow-green pyromorphite
Measured chemistry: Pb_1.00_Al_3.00_((P_0.81_As_0.19_)_Î£=1_O_4_)(P_1.00_O_3_OH)(OH)_6_
x	intensity
374.123	0.193356
383.765	0.164899
393.407	0.158883
403.05	0.160496
412.692	0.16898
422.334	0.183437
431.976	0.201002
441.619	0.199578
451.261	0.175847
460.904	0.165155
470.546	0.172496
480.188	0.199204
489.83	0.222428
499.473	0.204708
509.115	0.184827
518.758	0.201705
528.4	0.245091
538.042	0.280905
547.684	0.285853
557.327	0.281345
566.969	0.282397
576.611	0.286026
586.254	0.276314
595.896	0.257866
605.538	0.245487
615.181	0.234874
624.823	0.213267
634.466	0.185901
644.108	0.161597
653.75	0.142824
663.393	0.127193
673.035	0.114005
682.677	0.106358
692.319	0.10337
701.962	0.097644
711.604	0.0962081
721.246	0.0968092
730.889	0.0978857
740.531	0.10042
750.173	0.104559
759.816	0.111155
769.458	0.118601
779.101	0.125811
788.743	0.131157
798.385	0.135922
808.028	0.142571
817.67	0.14918
827.312	0.152777
836.955	0.157482
846.597	0.159164
856.239	0.15744
865.881	0.154428
875.524	0.145718
885.166	0.133447
894.808	0.125992
904.451	0.120513
914.093	0.116555
923.736	0.118189
933.378	0.125925
943.02	0.138917
952.663	0.161222
962.305	0.194582
971.947	0.225089
981.59	0.242893
991.232	0.26419
1000.87	0.290046
1010.52	0.298794
1020.16	0.297765
1029.8	0.281518
1039.44	0.254492
1049.09	0.226879
1058.73	0.205569
1068.37	0.189709
1078.01	0.178592
1087.65	0.175295
1097.3	0.174775
1106.94	0.165705
1116.58	0.144351
1126.22	0.11838
1135.87	0.0945228
1145.51	0.0765717
1155.15	0.0708675
1164.79	0.0740452
1174.44	0.0773472
1184.08	0.0794395
1193.72	0.0764908
1203.36	0.0654119
1213.01	0.0498755
1222.65	0.035545
1232.29	0.0257924
1241.93	0.0214928
1251.58	0.0204654
1261.22	0.0204645
1270.86	0.0214843
1280.5	0.0219066
1290.14	0.021372
1299.79	0.0205575
1309.43	0.0206575
1319.07	0.0215511
1328.71	0.0234116
1338.36	0.0264933
1348	0.0306425
1357.64	0.036668
1367.28	0.043899
1376.92	0.0504205
1386.57	0.0547138
1396.21	0.0595377
1405.85	0.0646761
1415.49	0.0676643
1425.14	0.0659468
1434.78	0.0608656
1444.42	0.0568691
1454.06	0.0584834
1463.71	0.0610543
1473.35	0.0614132
1482.99	0.058874
1492.63	0.0544372
1502.28	0.0470669
1511.92	0.0390697
1521.56	0.0343224
1531.2	0.0310477
1540.85	0.031277
1550.49	0.0309561
1560.13	0.033739
1569.77	0.0349659
1579.41	0.0369731
1589.06	0.0391192
1598.7	0.0416286
1608.34	0.0436207
1617.98	0.0449867
1627.63	0.0455966
1637.27	0.0467221
1646.91	0.0481233
1656.55	0.0476258
1666.19	0.0442036
1675.84	0.0388375
1685.48	0.0341357
1695.12	0.0301931
1704.77	0.0270128
1714.41	0.0251505
1724.05	0.0236142
1733.69	0.0236149
1743.33	0.0218152
1752.98	0.0217103
1762.62	0.0219642
1772.26	0.0221655
1781.9	0.0220749
1791.55	0.0226499
1801.19	0.0224796
1810.83	0.0227216
1820.47	0.0223691
1830.12	0.0225674
1839.76	0.0227098
1849.4	0.0226912
1859.04	0.0228906
1868.68	0.0232911
1878.33	0.0228809
1887.97	0.0227928
1897.61	0.0235517
1907.25	0.0240222
1916.9	0.0239951
1926.54	0.0234837
1936.18	0.0234143
1945.82	0.0221295
1955.46	0.0219817
1965.11	0.0236157
1974.75	0.0220417
1984.39	0.024143
1994.04	0.0238012
2003.68	0.0220148
2013.32	0.0214592
2022.96	0.0215919
2032.6	0.0223322
2042.25	0.0229881
2051.89	0.0240919
2061.53	0.0227797
2071.17	0.0247429
2080.82	0.0245888
2090.46	0.0247739
2100.1	0.0263752
2109.74	0.0261823
2119.39	0.0252743
2129.03	0.0251111
2138.67	0.0260304
2148.31	0.0265858
2157.95	0.0261956
2167.6	0.0314307
2177.24	0.028332
2186.88	0.0291355
2196.52	0.0301938
2206.17	0.0297782
2215.81	0.0305963
2225.45	0.0321093
2235.09	0.0347043
2244.74	0.0341653
2254.38	0.035521
2264.02	0.036612
2273.66	0.0387391
2283.3	0.0399365
2292.95	0.040307
2302.59	0.041059
2312.23	0.0410786
2321.87	0.0424102
2331.52	0.0413629
2341.16	0.0415477
2350.8	0.0413408
2360.44	0.0420259
2370.09	0.0411615
2379.73	0.0401132
2389.37	0.0394656
2399.01	0.0384548
2408.66	0.0378228
2418.3	0.0374864
2427.94	0.0370766
2437.58	0.037635
2447.22	0.0376067
2456.87	0.0377047
2466.51	0.0377748
2476.15	0.0384498
2485.79	0.0383499
2495.44	0.0386225
2505.08	0.0400398
2514.72	0.0402148
2524.36	0.0400261
2534.01	0.041002
2543.65	0.0416265
2553.29	0.0428986
2562.93	0.0429994
2572.57	0.0441429
2582.22	0.0449201
2591.86	0.0451198
2601.5	0.0462282
2611.14	0.0473656
2620.79	0.048509
2630.43	0.0491299
2640.07	0.0502435
2649.71	0.0506063
2659.36	0.0515904
2669	0.052144
2678.64	0.05235
2688.28	0.0535011
2697.93	0.0543332
2707.57	0.0553318
2717.21	0.0566314
2726.85	0.05766
2736.49	0.0584499
2746.14	0.0597205
2755.78	0.0609714
2765.42	0.061871
2775.06	0.0632765
2784.71	0.0645206
2794.35	0.0661025
2803.99	0.0677538
2813.63	0.069784
2823.28	0.0710017
2832.92	0.0730096
2842.56	0.07533
2852.2	0.0771044
2861.84	0.0788517
2871.49	0.0813843
2881.13	0.0834695
2890.77	0.0867493
2900.41	0.0894117
2910.06	0.0920156
2919.7	0.0942369
2929.34	0.0971858
2938.98	0.0979437
2948.62	0.100652
2958.27	0.103772
2967.91	0.105658
2977.55	0.108201
2987.2	0.110479
2996.84	0.113809
3006.48	0.117321
3016.12	0.117936
3025.76	0.122784
3035.41	0.125126
3045.05	0.127331
3054.69	0.130247
3064.33	0.132155
3073.98	0.133806
3083.62	0.134922
3093.26	0.136033
3102.9	0.136485
3112.55	0.137024
3122.19	0.136747
3131.83	0.136588
3141.47	0.136402
3151.11	0.134493
3160.76	0.133165
3170.4	0.131246
3180.04	0.129783
3189.68	0.127979
3199.33	0.1254
3208.97	0.123419
3218.61	0.120338
3228.25	0.117985
3237.9	0.115422
3247.54	0.112682
3257.18	0.109489
3266.82	0.107695
3276.47	0.104868
3286.11	0.102116
3295.75	0.0995039
3305.39	0.0978475
3315.03	0.0958149
3324.68	0.0937937
3334.32	0.0927044
3343.96	0.0907917
3353.6	0.0896789
3363.25	0.0876031
3372.89	0.0852925
3382.53	0.0839593
3392.17	0.0813127
3401.82	0.0796289
3411.46	0.0766644
3421.1	0.0754922
3430.74	0.0737869
3440.39	0.0717583
3450.03	0.0707974
3459.67	0.0695275
3469.31	0.0681804
3478.95	0.0671966
3488.6	0.0640089
3498.24	0.0609036
3507.88	0.0580665
3517.52	0.0551112
3527.17	0.0520491
3536.81	0.0486151
3546.45	0.0462357
3556.09	0.042447
3565.74	0.0402262
3575.38	0.0367987
3585.02	0.033758
3594.66	0.0331014
3604.3	0.0306608
3613.95	0.0272366
3623.59	0.0246558
3633.23	0.0207643
3642.87	0.0190113
3652.52	0.0177649
3662.16	0.0165924
3671.8	0.0155766
3681.44	0.0140137
3691.09	0.0143782
3700.73	0.0138282
3710.37	0.0150022
3720.01	0.0130658
3729.66	0.014461
3739.3	0.0133306
3748.94	0.0164991
3758.58	0.0145051
3768.22	0.0148783
3777.87	0.0153766
3787.51	0.0139765
3797.15	0.0156625
3806.79	0.0158138
3816.44	0.0153148
3826.08	0.0155241
3835.72	0.0164792
3845.36	0.016027
3855.01	0.0171426
3864.65	0.017156
3874.29	0.0165432
3883.93	0.0169173
3893.57	0.0170862
3903.22	0.0174958
3912.86	0.0168369
3922.5	0.0161454
3932.14	0.0172764
3941.79	0.0175376
3951.43	0.0154555
3961.07	0.0157705
3970.71	0.0162781
3980.36	0.0163472
3990	0.0164735
3999.64	0.0175732
