Measurement: Infrared, Infrared Data Processed
Mineral: Pollucite
Rruff sample: R050344
Ideal chemistry: Cs(Si_2_Al)O_6_nH_2_O
Locality: Konar Province, Afghanistan
Source: George Rossman
Description: Colorless fragment
Measured chemistry: (Cs_0.78_Na_0.21_Rb_0.01_)_Σ=1_(Si_2.13_Al_0.87_)_Σ=3_O_6_·H_2_O
x	intensity
399.193	0.271905
408.835	0.286466
418.477	0.295021
428.12	0.299659
437.762	0.276591
447.404	0.188695
457.047	0.124953
466.689	0.0935078
476.331	0.0647901
485.974	0.0464421
495.616	0.0346144
505.258	0.0250689
514.901	0.0223968
524.543	0.0221629
534.185	0.0212858
543.828	0.0214574
553.47	0.0224409
563.112	0.0233292
572.755	0.0266148
582.397	0.0309243
592.039	0.0339083
601.682	0.0393609
611.324	0.0475487
620.966	0.0603641
630.609	0.0561366
640.251	0.0472394
649.893	0.0476482
659.536	0.0544755
669.178	0.0633293
678.82	0.073934
688.463	0.0971292
698.105	0.116023
707.747	0.125406
717.39	0.135947
727.032	0.13855
736.674	0.124805
746.317	0.104621
755.959	0.114875
765.601	0.122752
775.244	0.0898941
784.886	0.0558218
794.528	0.0374513
804.171	0.0286412
813.813	0.0242478
823.455	0.0224556
833.098	0.0221018
842.74	0.0227783
852.382	0.025068
862.025	0.0279109
871.667	0.0320383
881.309	0.0371287
890.952	0.0443474
900.594	0.0541529
910.236	0.0678772
919.879	0.0879061
929.521	0.117221
939.163	0.158438
948.806	0.216129
958.448	0.290369
968.09	0.374722
977.733	0.454835
987.375	0.492273
997.017	0.486852
1006.66	0.466771
1016.3	0.439116
1025.94	0.404949
1035.59	0.364663
1045.23	0.318981
1054.87	0.271119
1064.51	0.222791
1074.16	0.183567
1083.8	0.158385
1093.44	0.142591
1103.08	0.130885
1112.72	0.118961
1122.37	0.103999
1132.01	0.0887262
1141.65	0.0741415
1151.3	0.0607994
1160.94	0.049009
1170.58	0.038197
1180.22	0.0298703
1189.86	0.0229285
1199.51	0.0171778
1209.15	0.0131039
1218.79	0.00949875
1228.43	0.00734598
1238.08	0.00583532
1247.72	0.00447705
1257.36	0.0037224
1267	0.00323725
1276.64	0.00281686
1286.29	0.00257552
1295.93	0.00237414
1305.57	0.00227517
1315.21	0.0023065
1324.86	0.00229847
1334.5	0.0016286
1344.14	0.00242427
1353.78	0.00202358
1363.43	0.0016813
1373.07	0.00152691
1382.71	0.00175976
1392.35	0.00183616
1401.99	0.00220184
1411.64	0.00170229
1421.28	0.00209957
1430.92	0.00180856
1440.57	0.00199579
1450.21	0.00218425
1459.85	0.00147416
1469.49	0.00211134
1479.13	0.00222571
1488.78	0.00224002
1498.42	0.00263073
1508.06	0.00193763
1517.7	0.00208611
1527.35	0.00243035
1536.99	0.00276763
1546.63	0.00265734
1556.27	0.00286201
1565.91	0.00306469
1575.56	0.0035855
1585.2	0.00411588
1594.84	0.00448904
1604.48	0.00711201
1614.13	0.0148847
1623.77	0.0195322
1633.41	0.0116364
1643.05	0.00668115
1652.7	0.00474295
1662.34	0.00388177
1671.98	0.00358047
1681.62	0.00371144
1691.27	0.0026107
1700.91	0.00190775
1710.55	0.00137133
1720.19	0.0013577
1729.84	0.00170538
1739.48	0.00109212
1749.12	0.000852306
1758.76	0.00166358
1768.4	0.00264475
1778.05	0.00277275
1787.69	0.00275937
1797.33	0.00230141
1806.97	0.00273632
1816.62	0.00183153
1826.26	0.00167212
1835.9	0.00181513
1845.54	0.0015285
1855.18	0.000848607
1864.83	0.00108327
1874.47	0.00142092
1884.11	0.00174898
1893.75	-5.09496e-05
1903.4	-0.000582158
1913.04	-0.000201735
1922.68	-0.0021491
1932.32	-0.00233656
1941.97	-0.00512915
1951.61	-0.00497888
1961.25	-0.00612439
1970.89	-0.00819757
1980.54	-0.00553622
1990.18	-0.00584074
1999.82	-0.00644303
2009.46	-0.00722646
2019.11	-0.00938652
2028.75	-0.0102913
2038.39	-0.00534859
2048.03	-0.00780156
2057.67	-0.00327511
2067.32	-0.00587633
2076.96	-0.004813
2086.6	-0.00206713
2096.24	-0.00253339
2105.89	-0.00288259
2115.53	-0.00357243
2125.17	-0.00389167
2134.81	-0.00569847
2144.45	-0.00930787
2154.1	-0.00687752
2163.74	-0.00176022
2173.38	-0.00271652
2183.02	-0.00118638
2192.67	-0.00143525
2202.31	-0.002685
2211.95	7.10215e-05
2221.59	-0.000324199
2231.24	0.00123379
2240.88	0.000878766
2250.52	0.00194669
2260.16	0.00157909
2269.8	0.00159042
2279.45	0.00250622
2289.09	0.00328702
2298.73	0.00348841
2308.38	0.00343389
2318.02	0.00460778
2327.66	0.00500915
2337.3	0.00568021
2346.94	0.0036443
2356.59	0.00647362
2366.23	0.004949
2375.87	0.00325723
2385.51	0.00299709
2395.16	0.00453441
2404.8	0.00384265
2414.44	0.0024325
2424.08	0.00260823
2433.72	0.0027094
2443.37	0.00421578
2453.01	0.0041713
2462.65	0.00295906
2472.29	0.00437492
2481.94	0.0037274
2491.58	0.00407189
2501.22	0.00399065
2510.86	0.00334065
2520.51	0.00452489
2530.15	0.0048879
2539.79	0.00364591
2549.43	0.00402205
2559.07	0.00257661
2568.72	0.00314131
2578.36	0.00448327
2588	0.0050902
2597.64	0.0043775
2607.29	0.00455533
2616.93	0.00504954
2626.57	0.00562005
2636.21	0.00571065
2645.86	0.00451358
2655.5	0.00444983
2665.14	0.0037268
2674.78	0.00362897
2684.43	0.00428188
2694.07	0.00423195
2703.71	0.004223
2713.35	0.00477928
2722.99	0.0032262
2732.64	0.00478743
2742.28	0.00405119
2751.92	0.00491607
2761.56	0.00576775
2771.21	0.00446178
2780.85	0.00544349
2790.49	0.00484321
2800.13	0.00407521
2809.78	0.00376113
2819.42	0.00550031
2829.06	0.00492257
2838.7	0.00368645
2848.34	0.00282699
2857.99	0.000341144
2867.63	0.0019741
2877.27	0.00314249
2886.91	0.00383359
2896.56	0.000827285
2906.2	0.000135012
2915.84	-0.000813129
2925.48	-0.00378338
2935.13	-0.00100753
2944.77	0.00193779
2954.41	0.00189492
2964.05	0.00511467
2973.7	0.00378754
2983.34	0.00431615
2992.98	0.00458594
3002.62	0.00456687
3012.26	0.00548217
3021.91	0.00539516
3031.55	0.00707451
3041.19	0.00507135
3050.83	0.00635292
3060.48	0.00613082
3070.12	0.00598725
3079.76	0.00573404
3089.4	0.00651162
3099.05	0.00583666
3108.69	0.00654647
3118.33	0.00801622
3127.97	0.0064316
3137.61	0.00645686
3147.26	0.00719524
3156.9	0.00883254
3166.54	0.00777049
3176.18	0.00863252
3185.83	0.00798311
3195.47	0.0073706
3205.11	0.00965797
3214.75	0.0112168
3224.4	0.00793373
3234.04	0.00853682
3243.68	0.00726486
3253.32	0.00735461
3262.97	0.00955199
3272.61	0.00816392
3282.25	0.00708016
3291.89	0.0104206
3301.53	0.0083811
3311.18	0.00936478
3320.82	0.00804761
3330.46	0.00967426
3340.1	0.00699243
3349.75	0.0081128
3359.39	0.00986418
3369.03	0.00673996
3378.67	0.0121375
3388.32	0.0113324
3397.96	0.00847391
3407.6	0.0109052
3417.24	0.00860297
3426.89	0.0114605
3436.53	0.00981672
3446.17	0.00832945
3455.81	0.0120705
3465.45	0.0103472
3475.1	0.0123025
3484.74	0.0106736
3494.38	0.0116522
3504.02	0.0100557
3513.67	0.0107408
3523.31	0.011448
3532.95	0.0121786
3542.59	0.0131711
3552.24	0.0118493
3561.88	0.012
3571.52	0.014423
3581.16	0.0173161
3590.8	0.0118156
3600.45	0.0137611
3610.09	0.00971132
3619.73	0.00906135
3629.37	0.0121815
3639.02	0.0112339
3648.66	0.0128052
3658.3	0.0129203
3667.94	0.0164752
3677.59	0.0109943
3687.23	0.00847933
3696.87	0.00726969
3706.51	0.00529624
3716.16	0.0021751
3725.8	0.00668172
3735.44	0.00683685
3745.08	0.00317657
3754.72	0.00627269
3764.37	0.00542759
3774.01	0.00914573
3783.65	0.00500238
3793.29	0.00902134
3802.94	0.00535741
3812.58	0.00766969
3822.22	0.00396913
3831.86	0.00877607
3841.51	0.00780461
3851.15	0.00562928
3860.79	0.00523397
3870.43	0.00632349
3880.07	0.00591899
3889.72	0.00843094
3899.36	0.00922423
3909	0.00648934
3918.64	0.00932324
3928.29	0.00337083
3937.93	0.00830729
3947.57	0.00962842
3957.21	0.0104013
3966.86	0.00415213
3976.5	0.00966108
3986.14	0.00854225
3995.78	0.00942117
