Measurement: Infrared, Infrared Data Processed
Mineral: Pollucite
Rruff sample: R050345
Ideal chemistry: Cs(Si_2_Al)O_6_nH_2_O
Locality: Bernic Lake, Manitoba, Canada
Source: California Institute of Technology
Description: Colorless to white fragment
Measured chemistry: (Cs_0.79_Na_0.19_Rb_0.02_)_Σ=1_(Si_2.10_Al_0.90_)_Σ=3_O_6_·H_2_O
x	intensity
399.193	0.189826
408.835	0.187165
418.477	0.203662
428.12	0.20774
437.762	0.208116
447.404	0.165424
457.047	0.124655
466.689	0.099263
476.331	0.077521
485.974	0.0613913
495.616	0.0481612
505.258	0.0410354
514.901	0.0430176
524.543	0.0453369
534.185	0.0458434
543.828	0.0402434
553.47	0.0348188
563.112	0.0330919
572.755	0.0371409
582.397	0.0444897
592.039	0.0492495
601.682	0.0468124
611.324	0.0471121
620.966	0.0474678
630.609	0.0436048
640.251	0.0398532
649.893	0.0433831
659.536	0.0406818
669.178	0.0436977
678.82	0.0502225
688.463	0.0677635
698.105	0.0814063
707.747	0.08785
717.39	0.100943
727.032	0.107956
736.674	0.103445
746.317	0.0849591
755.959	0.087703
765.601	0.0928181
775.244	0.0733917
784.886	0.0514862
794.528	0.0422009
804.171	0.0341309
813.813	0.0236205
823.455	0.022076
833.098	0.0222524
842.74	0.022679
852.382	0.0254507
862.025	0.0293119
871.667	0.0323354
881.309	0.0377053
890.952	0.0450478
900.594	0.0549443
910.236	0.0684332
919.879	0.0854827
929.521	0.107358
939.163	0.134862
948.806	0.1714
958.448	0.217708
968.09	0.271172
977.733	0.321391
987.375	0.346993
997.017	0.347387
1006.66	0.339972
1016.3	0.326894
1025.94	0.307196
1035.59	0.282637
1045.23	0.252066
1054.87	0.219973
1064.51	0.186443
1074.16	0.159336
1083.8	0.143519
1093.44	0.133131
1103.08	0.121595
1112.72	0.108772
1122.37	0.0949151
1132.01	0.0815252
1141.65	0.0697554
1151.3	0.0588048
1160.94	0.050383
1170.58	0.0404487
1180.22	0.031314
1189.86	0.0241542
1199.51	0.0178641
1209.15	0.0128366
1218.79	0.00871588
1228.43	0.00599179
1238.08	0.00434309
1247.72	0.00300383
1257.36	0.00196293
1267	0.00141651
1276.64	0.00103492
1286.29	0.000623967
1295.93	0.000515534
1305.57	0.000337254
1315.21	7.74266e-06
1324.86	-4.33638e-05
1334.5	-0.000365902
1344.14	-0.000387685
1353.78	-0.000598885
1363.43	-0.000419065
1373.07	-0.000413855
1382.71	-0.000519206
1392.35	-0.000410016
1401.99	-0.000157182
1411.64	-0.000193292
1421.28	8.61245e-05
1430.92	-1.49349e-05
1440.57	-0.000142517
1450.21	-0.000203382
1459.85	-0.00021077
1469.49	-0.000295561
1479.13	-0.000155072
1488.78	-4.43345e-05
1498.42	5.41694e-05
1508.06	0.000386807
1517.7	-0.00027371
1527.35	-0.000613947
1536.99	-0.000493942
1546.63	-0.000610715
1556.27	5.76686e-06
1565.91	-0.000161696
1575.56	0.000680251
1585.2	0.000389582
1594.84	0.00098626
1604.48	0.00176427
1614.13	0.00585239
1623.77	0.00870054
1633.41	0.00434101
1643.05	0.00146923
1652.7	0.00190263
1662.34	0.000384521
1671.98	-0.000221029
1681.62	-0.000117958
1691.27	-0.00055364
1700.91	0.00013464
1710.55	-0.00102374
1720.19	-0.000835684
1729.84	-0.00120967
1739.48	-0.00192052
1749.12	-0.00211733
1758.76	-0.00154927
1768.4	-0.000820137
1778.05	-0.00104653
1787.69	-0.00141427
1797.33	-0.00156098
1806.97	-0.00196553
1816.62	-0.00223271
1826.26	-0.00236141
1835.9	-0.00281092
1845.54	-0.00271219
1855.18	-0.0028241
1864.83	-0.00261772
1874.47	-0.00312211
1884.11	-0.0035632
1893.75	-0.0034884
1903.4	-0.00350484
1913.04	-0.00373886
1922.68	-0.00444714
1932.32	-0.00447383
1941.97	-0.00518785
1951.61	-0.00627213
1961.25	-0.00537905
1970.89	-0.00555463
1980.54	-0.00562222
1990.18	-0.00639804
1999.82	-0.00516471
2009.46	-0.00715901
2019.11	-0.00648544
2028.75	-0.00546565
2038.39	-0.006574
2048.03	-0.00740924
2057.67	-0.00600643
2067.32	-0.00690736
2076.96	-0.00615601
2086.6	-0.00607965
2096.24	-0.00624334
2105.89	-0.00571073
2115.53	-0.00521751
2125.17	-0.0058866
2134.81	-0.00648108
2144.45	-0.00673699
2154.1	-0.00464708
2163.74	-0.00403576
2173.38	-0.00408351
2183.02	-0.00398535
2192.67	-0.00320412
2202.31	-0.00201535
2211.95	-0.00316698
2221.59	-0.00367163
2231.24	-0.00373756
2240.88	-0.00232499
2250.52	-0.00347912
2260.16	-0.00313
2269.8	-0.00288053
2279.45	-0.00265955
2289.09	-0.00316687
2298.73	-0.00382275
2308.38	-0.0039462
2318.02	-0.00354781
2327.66	-0.00331732
2337.3	-0.00318471
2346.94	-0.00354516
2356.59	-0.00328072
2366.23	-0.0031617
2375.87	-0.00386371
2385.51	-0.00428071
2395.16	-0.00434586
2404.8	-0.00493183
2414.44	-0.00442419
2424.08	-0.00439136
2433.72	-0.00439174
2443.37	-0.00463637
2453.01	-0.00419171
2462.65	-0.00424856
2472.29	-0.00424994
2481.94	-0.00412038
2491.58	-0.0042889
2501.22	-0.00413287
2510.86	-0.0042783
2520.51	-0.00441497
2530.15	-0.00399477
2539.79	-0.00423329
2549.43	-0.00390891
2559.07	-0.00392949
2568.72	-0.00390252
2578.36	-0.00409724
2588	-0.00416105
2597.64	-0.00384701
2607.29	-0.00378402
2616.93	-0.00365509
2626.57	-0.00399045
2636.21	-0.00369384
2645.86	-0.00403029
2655.5	-0.00409419
2665.14	-0.00397557
2674.78	-0.004463
2684.43	-0.0046601
2694.07	-0.00441996
2703.71	-0.0045535
2713.35	-0.00464093
2722.99	-0.00478081
2732.64	-0.0042886
2742.28	-0.00445399
2751.92	-0.00422718
2761.56	-0.00447564
2771.21	-0.00416583
2780.85	-0.00388675
2790.49	-0.00421331
2800.13	-0.00461065
2809.78	-0.00455036
2819.42	-0.00461024
2829.06	-0.00428566
2838.7	-0.0049228
2848.34	-0.00690642
2857.99	-0.00661315
2867.63	-0.00523894
2877.27	-0.00513539
2886.91	-0.00559106
2896.56	-0.00571534
2906.2	-0.0065018
2915.84	-0.00891094
2925.48	-0.00900262
2935.13	-0.0072412
2944.77	-0.00629285
2954.41	-0.00581117
2964.05	-0.00554098
2973.7	-0.00569067
2983.34	-0.00553044
2992.98	-0.00545452
3002.62	-0.00557813
3012.26	-0.00525297
3021.91	-0.0050931
3031.55	-0.00476134
3041.19	-0.00521568
3050.83	-0.00515671
3060.48	-0.00486361
3070.12	-0.00521619
3079.76	-0.00456514
3089.4	-0.00487822
3099.05	-0.00497437
3108.69	-0.0043894
3118.33	-0.00424687
3127.97	-0.00467187
3137.61	-0.00431181
3147.26	-0.00464581
3156.9	-0.00419567
3166.54	-0.00391485
3176.18	-0.00455466
3185.83	-0.00352296
3195.47	-0.00409141
3205.11	-0.00432671
3214.75	-0.00421591
3224.4	-0.00463536
3234.04	-0.00419256
3243.68	-0.0042765
3253.32	-0.00399482
3262.97	-0.00372632
3272.61	-0.00429069
3282.25	-0.00398875
3291.89	-0.00441749
3301.53	-0.00385437
3311.18	-0.00355078
3320.82	-0.00367313
3330.46	-0.00364656
3340.1	-0.00340054
3349.75	-0.00375473
3359.39	-0.00341109
3369.03	-0.00385632
3378.67	-0.00394144
3388.32	-0.00410211
3397.96	-0.00350791
3407.6	-0.00415509
3417.24	-0.00430849
3426.89	-0.0043053
3436.53	-0.00445803
3446.17	-0.00380788
3455.81	-0.00404311
3465.45	-0.00386459
3475.1	-0.00474636
3484.74	-0.00435058
3494.38	-0.0043023
3504.02	-0.00342459
3513.67	-0.00351271
3523.31	-0.00450881
3532.95	-0.00361465
3542.59	-0.00446184
3552.24	-0.00357258
3561.88	-0.0041395
3571.52	-0.00450901
3581.16	-0.00418813
3590.8	-0.00382779
3600.45	-0.00484108
3610.09	-0.00432347
3619.73	-0.00307357
3629.37	-0.00290943
3639.02	-0.0045828
3648.66	-0.00365797
3658.3	-0.00568546
3667.94	-0.00517059
3677.59	-0.00704163
3687.23	-0.00840444
3696.87	-0.00970839
3706.51	-0.00921938
3716.16	-0.0093876
3725.8	-0.00996306
3735.44	-0.00923096
3745.08	-0.00926737
3754.72	-0.0112525
3764.37	-0.0094032
3774.01	-0.0100218
3783.65	-0.010798
3793.29	-0.0117604
3802.94	-0.0103991
3812.58	-0.0110441
3822.22	-0.00999998
3831.86	-0.00964518
3841.51	-0.0108267
3851.15	-0.00946735
3860.79	-0.0109947
3870.43	-0.0103798
3880.07	-0.0122223
3889.72	-0.0112443
3899.36	-0.011264
3909	-0.011995
3918.64	-0.0111388
3928.29	-0.0124936
3937.93	-0.0121834
3947.57	-0.0123103
3957.21	-0.0121066
3966.86	-0.0122676
3976.5	-0.0125292
3986.14	-0.0125557
3995.78	-0.0127604
