Measurement: Infrared, Infrared Data Processed
Mineral: Polylithionite
Rruff sample: R050132
Ideal chemistry: KLi_2_AlSi_4_O_10_F_2_
Locality: Brown Derby mine, Ohio City, Gunnison County, Colorado, USA
Source: Dave Bunk Minerals
Description: Purple scaly aggregate, polytype 2M1
Measured chemistry: (K_0.90_Rb_0.10_)(Li_0.62_Al_0.38_)_3_(Si_0.93_Al_0.07_)_4_O_10_(F_0.69_(OH)_0.31_)_2_
x	intensity
374.123	0.204701
383.765	0.222766
393.407	0.241525
403.05	0.29539
412.692	0.293621
422.334	0.313053
431.976	0.335451
441.619	0.330417
451.261	0.328924
460.904	0.357691
470.546	0.346782
480.188	0.320862
489.83	0.277696
499.473	0.262933
509.115	0.268969
518.758	0.28556
528.4	0.28851
538.042	0.247378
547.684	0.206347
557.327	0.167268
566.969	0.1392
576.611	0.120704
586.254	0.105107
595.896	0.0930474
605.538	0.092322
615.181	0.0953005
624.823	0.0899918
634.466	0.0857129
644.108	0.0923813
653.75	0.0987259
663.393	0.104871
673.035	0.108596
682.677	0.111925
692.319	0.11195
701.962	0.110634
711.604	0.110538
721.246	0.114489
730.889	0.120252
740.531	0.123581
750.173	0.127875
759.816	0.120159
769.458	0.10892
779.101	0.111824
788.743	0.117359
798.385	0.117969
808.028	0.106674
817.67	0.0839242
827.312	0.0772384
836.955	0.0760926
846.597	0.0736734
856.239	0.0823406
865.881	0.0958527
875.524	0.11261
885.166	0.126814
894.808	0.146179
904.451	0.178463
914.093	0.222619
923.736	0.264893
933.378	0.310376
943.02	0.370078
952.663	0.437962
962.305	0.493722
971.947	0.507774
981.59	0.497572
991.232	0.486646
1000.87	0.456831
1010.52	0.415139
1020.16	0.38224
1029.8	0.332809
1039.44	0.257971
1049.09	0.199
1058.73	0.172654
1068.37	0.152567
1078.01	0.135493
1087.65	0.127114
1097.3	0.112931
1106.94	0.0920161
1116.58	0.0725776
1126.22	0.0557061
1135.87	0.0399062
1145.51	0.0251281
1155.15	0.0166568
1164.79	0.0126865
1174.44	0.00998359
1184.08	0.00815757
1193.72	0.00683372
1203.36	0.00533103
1213.01	0.00421424
1222.65	0.00324407
1232.29	0.0028033
1241.93	0.00215605
1251.58	0.00186153
1261.22	0.00175457
1270.86	0.0019175
1280.5	0.00246084
1290.14	0.00257277
1299.79	0.00147474
1309.43	0.00113639
1319.07	0.000555775
1328.71	0.000575482
1338.36	0.000289513
1348	0.000502112
1357.64	0.000398604
1367.28	0.000304609
1376.92	0.000774634
1386.57	0.000618337
1396.21	0.00072147
1405.85	0.000431591
1415.49	0.000588421
1425.14	0.000461753
1434.78	0.000543762
1444.42	0.000452962
1454.06	0.000403869
1463.71	0.00028344
1473.35	-1.30343e-05
1482.99	-0.000491187
1492.63	-0.000654381
1502.28	-0.000521449
1511.92	-0.000271063
1521.56	0.000379939
1531.2	5.35275e-05
1540.85	0.00114542
1550.49	0.000779382
1560.13	0.00171451
1569.77	0.000842661
1579.41	0.00107276
1589.06	0.00078654
1598.7	0.00110926
1608.34	0.00127807
1617.98	0.0018607
1627.63	0.00198487
1637.27	0.00273922
1646.91	0.00319657
1656.55	0.00262647
1666.19	0.00235097
1675.84	0.00239238
1685.48	0.0025501
1695.12	0.00252005
1704.77	0.00217779
1714.41	0.0022995
1724.05	0.00244327
1733.69	0.00328365
1743.33	0.000533636
1752.98	0.000206572
1762.62	0.000259469
1772.26	0.000209667
1781.9	-8.84393e-05
1791.55	9.75958e-05
1801.19	-0.000141251
1810.83	-0.000413052
1820.47	-0.000433338
1830.12	-0.000573499
1839.76	-0.000665817
1849.4	-0.00183013
1859.04	-0.001484
1868.68	-0.00149071
1878.33	-0.00189613
1887.97	-0.00220289
1897.61	-0.00235459
1907.25	-0.00294489
1916.9	-0.00368166
1926.54	-0.0036977
1936.18	-0.00442557
1945.82	-0.00535181
1955.46	-0.0063953
1965.11	-0.00699049
1974.75	-0.00832112
1984.39	-0.00738843
1994.04	-0.00870168
2003.68	-0.00897534
2013.32	-0.00788369
2022.96	-0.00908667
2032.6	-0.00807446
2042.25	-0.00780864
2051.89	-0.00634978
2061.53	-0.0058571
2071.17	-0.00628059
2080.82	-0.00459944
2090.46	-0.00462317
2100.1	-0.00407662
2109.74	-0.00430972
2119.39	-0.00497592
2129.03	-0.00610262
2138.67	-0.00595186
2148.31	-0.00525381
2157.95	-0.0046182
2167.6	-0.0044372
2177.24	-0.00332927
2186.88	-0.00177275
2196.52	-0.00152715
2206.17	-0.00387984
2215.81	-0.00299368
2225.45	-0.00181513
2235.09	-0.00184805
2244.74	-0.00201065
2254.38	-0.00180905
2264.02	-0.00151184
2273.66	-0.00152452
2283.3	-0.00133963
2292.95	-0.00116006
2302.59	-0.00217788
2312.23	-0.00129883
2321.87	-0.000575064
2331.52	-0.000570581
2341.16	-0.000887425
2350.8	-0.0011176
2360.44	-0.000150936
2370.09	-0.000623187
2379.73	-0.00137478
2389.37	-0.00177299
2399.01	-0.00110058
2408.66	-0.00127416
2418.3	-0.000724908
2427.94	-0.00134905
2437.58	-0.00172829
2447.22	-0.000236746
2456.87	-0.000418507
2466.51	-0.000324074
2476.15	-0.00127389
2485.79	-0.000464106
2495.44	-6.3582e-05
2505.08	-0.000997824
2514.72	-0.000910339
2524.36	-0.00130087
2534.01	-0.00108861
2543.65	-0.00109537
2553.29	-0.00076309
2562.93	-0.00156313
2572.57	-0.000508084
2582.22	-0.00164077
2591.86	-0.00110163
2601.5	-0.000903686
2611.14	-0.00156999
2620.79	-0.00111991
2630.43	-0.00171013
2640.07	-0.00161568
2649.71	-0.00145044
2659.36	-0.00117477
2669	-0.00166385
2678.64	-0.0020695
2688.28	-0.00210425
2697.93	-0.00157914
2707.57	-0.00190288
2717.21	-0.00155527
2726.85	-0.00123699
2736.49	-0.00181231
2746.14	-0.00143433
2755.78	-0.00126224
2765.42	-0.00112139
2775.06	-0.00106007
2784.71	-0.0012836
2794.35	-0.000703743
2803.99	-0.000810627
2813.63	-0.000372292
2823.28	9.48598e-05
2832.92	7.78174e-05
2842.56	0.00071875
2852.2	0.00152701
2861.84	0.00161259
2871.49	0.00129977
2881.13	0.000808837
2890.77	0.00130802
2900.41	0.00197145
2910.06	0.00257883
2919.7	0.00377349
2929.34	0.00409031
2938.98	0.00215061
2948.62	0.00121655
2958.27	0.00236493
2967.91	0.00193755
2977.55	-0.000231037
2987.2	-0.000413167
2996.84	-0.000567261
3006.48	5.77779e-06
3016.12	0.000378214
3025.76	0.000284557
3035.41	-6.87917e-05
3045.05	0.000171734
3054.69	0.00121158
3064.33	5.9094e-05
3073.98	0.000866339
3083.62	0.00127
3093.26	0.000406751
3102.9	0.000546555
3112.55	0.000571571
3122.19	0.00204676
3131.83	0.00157126
3141.47	0.00183384
3151.11	0.00256962
3160.76	0.00252418
3170.4	0.00334059
3180.04	0.00295007
3189.68	0.00327594
3199.33	0.00442423
3208.97	0.00311522
3218.61	0.00447625
3228.25	0.00497961
3237.9	0.00463395
3247.54	0.00495493
3257.18	0.00466231
3266.82	0.00469316
3276.47	0.00461149
3286.11	0.00386553
3295.75	0.00542612
3305.39	0.00436337
3315.03	0.00548566
3324.68	0.00647405
3334.32	0.00514465
3343.96	0.0058165
3353.6	0.00652837
3363.25	0.00603545
3372.89	0.00628428
3382.53	0.00652569
3392.17	0.00665844
3401.82	0.00725199
3411.46	0.00681302
3421.1	0.00664428
3430.74	0.00644562
3440.39	0.00662299
3450.03	0.00664707
3459.67	0.00579093
3469.31	0.00601445
3478.95	0.0057679
3488.6	0.00598719
3498.24	0.00426454
3507.88	0.0055151
3517.52	0.00463031
3527.17	0.00481392
3536.81	0.00452992
3546.45	0.00413302
3556.09	0.00519113
3565.74	0.00447704
3575.38	0.00422018
3585.02	0.00639955
3594.66	0.00588752
3604.3	0.00677206
3613.95	0.0136583
3623.59	0.0204116
3633.23	0.0188818
3642.87	0.0135227
3652.52	0.0107594
3662.16	0.0051009
3671.8	-9.86645e-05
3681.44	-0.00527551
3691.09	-0.00459131
3700.73	-0.00641321
3710.37	-0.0071073
3720.01	-0.00720185
3729.66	-0.00823715
3739.3	-0.00838862
3748.94	-0.00628976
3758.58	-0.00839917
3768.22	-0.00908539
3777.87	-0.00894481
3787.51	-0.00893943
3797.15	-0.00812158
3806.79	-0.00789253
3816.44	-0.0078384
3826.08	-0.00874119
3835.72	-0.00814602
3845.36	-0.00866281
3855.01	-0.00698626
3864.65	-0.00612286
3874.29	-0.00820366
3883.93	-0.00826954
3893.57	-0.00906004
3903.22	-0.00875198
3912.86	-0.00861597
3922.5	-0.0117311
3932.14	-0.00949654
3941.79	-0.00870462
3951.43	-0.00869152
3961.07	-0.00965293
3970.71	-0.00936987
3980.36	-0.00975672
3990	-0.00968175
3999.64	-0.0103285
