Measurement: Infrared, Infrared Data Processed
Mineral: Polyhalite
Rruff sample: R070209
Ideal chemistry: K_2_Ca_2_Mg(S^6+^O_4_)_4_2H_2_O
Locality: West Texas, Texas, USA
Source: Michael Scott
Description: Colorless to brick red massive
x	intensity
374.123	0.0139288
383.765	0.00972583
393.407	0.0112028
403.05	0.0135742
412.692	0.0172995
422.334	0.0156898
431.976	0.0241367
441.619	0.0340937
451.261	0.0411956
460.904	0.0309956
470.546	0.0432188
480.188	0.0592899
489.83	0.0562123
499.473	0.0734275
509.115	0.0821638
518.758	0.077221
528.4	0.0775172
538.042	0.0711683
547.684	0.0546734
557.327	0.0433595
566.969	0.0425239
576.611	0.0498129
586.254	0.0734997
595.896	0.133308
605.538	0.138968
615.181	0.162582
624.823	0.129258
634.466	0.0639895
644.108	0.0454167
653.75	0.0475319
663.393	0.0272198
673.035	0.0201733
682.677	0.0227722
692.319	0.0278952
701.962	0.0368248
711.604	0.0504205
721.246	0.0678833
730.889	0.0868856
740.531	0.100303
750.173	0.0992922
759.816	0.0856405
769.458	0.0672546
779.101	0.0500195
788.743	0.0372695
798.385	0.0289338
808.028	0.0236067
817.67	0.0204175
827.312	0.0186659
836.955	0.0178713
846.597	0.0176183
856.239	0.0177353
865.881	0.0180071
875.524	0.0184891
885.166	0.0193997
894.808	0.0205202
904.451	0.0221311
914.093	0.0239263
923.736	0.0266933
933.378	0.0305461
943.02	0.0361286
952.663	0.0434009
962.305	0.0553147
971.947	0.0749456
981.59	0.129436
991.232	0.143834
1000.87	0.0598258
1010.52	0.0832339
1020.16	0.103914
1029.8	0.132611
1039.44	0.179235
1049.09	0.2329
1058.73	0.289643
1068.37	0.334219
1078.01	0.33812
1087.65	0.300901
1097.3	0.25764
1106.94	0.211676
1116.58	0.174396
1126.22	0.195942
1135.87	0.272325
1145.51	0.250659
1155.15	0.231643
1164.79	0.200489
1174.44	0.14025
1184.08	0.092525
1193.72	0.0907153
1203.36	0.0718938
1213.01	0.0542152
1222.65	0.0367561
1232.29	0.0195383
1241.93	0.00955114
1251.58	0.00674106
1261.22	0.00537634
1270.86	0.00477071
1280.5	0.00433119
1290.14	0.00391079
1299.79	0.00353591
1309.43	0.0035048
1319.07	0.00329108
1328.71	0.00337274
1338.36	0.00332818
1348	0.00307451
1357.64	0.00300407
1367.28	0.0025758
1376.92	0.00271013
1386.57	0.00245754
1396.21	0.00252695
1405.85	0.00238421
1415.49	0.002353
1425.14	0.00228154
1434.78	0.00225404
1444.42	0.00189251
1454.06	0.00187865
1463.71	0.00168567
1473.35	0.00199682
1482.99	0.00188851
1492.63	0.00193334
1502.28	0.00220515
1511.92	0.00203946
1521.56	0.00259515
1531.2	0.00241737
1540.85	0.00293707
1550.49	0.00291051
1560.13	0.00364616
1569.77	0.0038602
1579.41	0.00449302
1589.06	0.00548012
1598.7	0.00745305
1608.34	0.0112332
1617.98	0.0169296
1627.63	0.0230185
1637.27	0.0240339
1646.91	0.0171596
1656.55	0.0102206
1666.19	0.00628596
1675.84	0.00456981
1685.48	0.00316492
1695.12	0.00248649
1704.77	0.00169341
1714.41	0.00114765
1724.05	0.000625559
1733.69	0.000464748
1743.33	-0.000268407
1752.98	-5.1022e-06
1762.62	-8.82428e-05
1772.26	-1.75549e-05
1781.9	1.00983e-05
1791.55	0.000378997
1801.19	0.000489248
1810.83	0.000285156
1820.47	0.000184185
1830.12	0.000505013
1839.76	0.000155834
1849.4	0.0005621
1859.04	0.000234506
1868.68	0.000311212
1878.33	-3.6376e-05
1887.97	-0.000113436
1897.61	-6.94062e-05
1907.25	0.000329331
1916.9	0.0011124
1926.54	9.80308e-05
1936.18	0.000815726
1945.82	0.000183776
1955.46	-0.000906334
1965.11	0.000139986
1974.75	-0.000548025
1984.39	0.00135977
1994.04	0.0019951
2003.68	0.00163151
2013.32	0.00176472
2022.96	0.00159238
2032.6	0.00247634
2042.25	0.00215506
2051.89	0.00156979
2061.53	0.000954751
2071.17	0.00148031
2080.82	0.000229085
2090.46	-4.96325e-06
2100.1	0.000646024
2109.74	0.0013119
2119.39	0.000919581
2129.03	0.000852026
2138.67	-0.00144402
2148.31	-0.000706831
2157.95	-0.00140667
2167.6	-0.000720133
2177.24	-1.18827e-05
2186.88	-0.000627626
2196.52	0.000931629
2206.17	0.00233784
2215.81	0.000765105
2225.45	0.00256314
2235.09	0.00292987
2244.74	0.00271872
2254.38	0.00130933
2264.02	0.000790649
2273.66	0.00122864
2283.3	0.00122178
2292.95	0.00202035
2302.59	0.00144537
2312.23	0.00133219
2321.87	0.00249105
2331.52	0.00217161
2341.16	0.00223857
2350.8	0.00221174
2360.44	0.00319575
2370.09	0.0029619
2379.73	0.00244095
2389.37	0.00283836
2399.01	0.00294371
2408.66	0.00354169
2418.3	0.00303594
2427.94	0.00294166
2437.58	0.00371008
2447.22	0.00457263
2456.87	0.00367712
2466.51	0.00495641
2476.15	0.00457143
2485.79	0.00448031
2495.44	0.0039411
2505.08	0.00320731
2514.72	0.00389928
2524.36	0.00391098
2534.01	0.00376478
2543.65	0.00392392
2553.29	0.00404003
2562.93	0.00413049
2572.57	0.0040962
2582.22	0.00427708
2591.86	0.00402005
2601.5	0.00430522
2611.14	0.00372841
2620.79	0.00425888
2630.43	0.00430548
2640.07	0.00451829
2649.71	0.00439612
2659.36	0.00421327
2669	0.00430157
2678.64	0.00438773
2688.28	0.00435308
2697.93	0.0046552
2707.57	0.00466749
2717.21	0.00452115
2726.85	0.00503973
2736.49	0.00499425
2746.14	0.00525428
2755.78	0.00511765
2765.42	0.00572748
2775.06	0.00576241
2784.71	0.00560574
2794.35	0.00585501
2803.99	0.00591862
2813.63	0.00606264
2823.28	0.0060227
2832.92	0.00657322
2842.56	0.00651267
2852.2	0.00632037
2861.84	0.00687776
2871.49	0.00633272
2881.13	0.00724566
2890.77	0.00658372
2900.41	0.00751625
2910.06	0.00762409
2919.7	0.00824864
2929.34	0.00830228
2938.98	0.00780861
2948.62	0.00810293
2958.27	0.00834777
2967.91	0.00864832
2977.55	0.00957719
2987.2	0.00970685
2996.84	0.00998896
3006.48	0.0104962
3016.12	0.010213
3025.76	0.0124453
3035.41	0.0121813
3045.05	0.0135553
3054.69	0.0141207
3064.33	0.0146637
3073.98	0.0155608
3083.62	0.0162658
3093.26	0.0170415
3102.9	0.0184289
3112.55	0.0200216
3122.19	0.0216628
3131.83	0.0231835
3141.47	0.0252592
3151.11	0.0273957
3160.76	0.0290818
3170.4	0.029819
3180.04	0.0313075
3189.68	0.0329963
3199.33	0.0351277
3208.97	0.0365575
3218.61	0.0394933
3228.25	0.0429261
3237.9	0.0475328
3247.54	0.0540354
3257.18	0.0616668
3266.82	0.0700749
3276.47	0.0744839
3286.11	0.0726449
3295.75	0.0670923
3305.39	0.0640711
3315.03	0.06251
3324.68	0.061943
3334.32	0.061143
3343.96	0.0586267
3353.6	0.0562624
3363.25	0.054382
3372.89	0.0542745
3382.53	0.0565906
3392.17	0.0622327
3401.82	0.0698495
3411.46	0.0833743
3421.1	0.101585
3430.74	0.122986
3440.39	0.127253
3450.03	0.108077
3459.67	0.0863504
3469.31	0.0689167
3478.95	0.0553284
3488.6	0.0457297
3498.24	0.0390053
3507.88	0.0335027
3517.52	0.0286738
3527.17	0.0254693
3536.81	0.0209341
3546.45	0.0180225
3556.09	0.0152491
3565.74	0.0131822
3575.38	0.0108069
3585.02	0.00931714
3594.66	0.00787823
3604.3	0.00611453
3613.95	0.00646442
3623.59	0.00527044
3633.23	0.0042118
3642.87	0.00542002
3652.52	0.00459028
3662.16	0.00377367
3671.8	0.00427699
3681.44	0.00354298
3691.09	0.00505865
3700.73	0.00337877
3710.37	0.004027
3720.01	0.00358186
3729.66	0.00351724
3739.3	0.00360225
3748.94	0.00540203
3758.58	0.00406164
3768.22	0.00449452
3777.87	0.00341372
3787.51	0.00398125
3797.15	0.00412482
3806.79	0.00556303
3816.44	0.00455164
3826.08	0.00400395
3835.72	0.00598687
3845.36	0.00325245
3855.01	0.006144
3864.65	0.0048168
3874.29	0.00534458
3883.93	0.00509554
3893.57	0.00540918
3903.22	0.00511588
3912.86	0.00379531
3922.5	0.00506515
3932.14	0.004859
3941.79	0.00443823
3951.43	0.00531808
3961.07	0.00489261
3970.71	0.00523669
3980.36	0.00570367
3990	0.00616835
3999.64	0.00526682
