Measurement: Infrared, Infrared Data Processed
Mineral: Potassic-fluoro-richterite
Rruff sample: R060034
Ideal chemistry: K(NaCa)Mg_5_Si_8_O_22_F_2_
Locality: Walgidee, Western Australia, Australia
Source: University of Arizona Mineral Museum
Description: Transparent brown water worn crystal fragment
Measured chemistry: (K_0.98_Na_0.02_)_Σ=1_(Ca_1.10_Na_0.90_)_Σ=2_(Mg_4.69_Fe^2+^_0.30_Mn_0.01_)_Σ=5_(Si_7.50_Ti_0.40_Al_0.10_)_Σ=8_O_22_((F_0.74_(OH)_0.26_)_2_
x	intensity
374.123	0.156385
383.765	0.206491
393.407	0.224777
403.05	0.235775
412.692	0.247194
422.334	0.265087
431.976	0.274761
441.619	0.255285
451.261	0.246683
460.904	0.236953
470.546	0.209049
480.188	0.198553
489.83	0.202393
499.473	0.194042
509.115	0.177494
518.758	0.148677
528.4	0.121859
538.042	0.100565
547.684	0.0722689
557.327	0.0477253
566.969	0.0314427
576.611	0.0228478
586.254	0.0191987
595.896	0.0186202
605.538	0.0212716
615.181	0.024257
624.823	0.0258849
634.466	0.0281243
644.108	0.0372987
653.75	0.0566636
663.393	0.0819538
673.035	0.0587284
682.677	0.0371224
692.319	0.0355774
701.962	0.0421618
711.604	0.0510628
721.246	0.0495012
730.889	0.0641342
740.531	0.0582376
750.173	0.036414
759.816	0.0311352
769.458	0.0309076
779.101	0.0344876
788.743	0.0353793
798.385	0.0348897
808.028	0.0359486
817.67	0.0418244
827.312	0.0505783
836.955	0.0612384
846.597	0.0725263
856.239	0.085771
865.881	0.105035
875.524	0.133752
885.166	0.180316
894.808	0.223377
904.451	0.253259
914.093	0.27196
923.736	0.271601
933.378	0.282207
943.02	0.307797
952.663	0.33216
962.305	0.324946
971.947	0.303311
981.59	0.271753
991.232	0.227221
1000.87	0.184338
1010.52	0.150071
1020.16	0.128387
1029.8	0.121584
1039.44	0.130927
1049.09	0.133654
1058.73	0.140588
1068.37	0.146295
1078.01	0.142959
1087.65	0.117215
1097.3	0.0796523
1106.94	0.0519686
1116.58	0.0343673
1126.22	0.0342246
1135.87	0.0569724
1145.51	0.0509259
1155.15	0.0222105
1164.79	0.00833638
1174.44	0.00376737
1184.08	0.00228175
1193.72	0.00149399
1203.36	0.000823125
1213.01	0.000181948
1222.65	-8.57519e-05
1232.29	-0.000359379
1241.93	-0.000562779
1251.58	-0.000765771
1261.22	-0.000673742
1270.86	-0.000486344
1280.5	-0.000195908
1290.14	-0.000423532
1299.79	-0.000553734
1309.43	-0.000702031
1319.07	-0.000570118
1328.71	-0.00069986
1338.36	-0.000735394
1348	-0.000753859
1357.64	-0.000571758
1367.28	-0.000462201
1376.92	-6.2877e-05
1386.57	0.000351321
1396.21	0.000612743
1405.85	0.000792873
1415.49	0.000867547
1425.14	0.000993116
1434.78	0.00116606
1444.42	0.00103063
1454.06	0.000949447
1463.71	0.000879448
1473.35	0.000866041
1482.99	0.000617409
1492.63	0.000623925
1502.28	0.000591976
1511.92	0.000621541
1521.56	0.00102543
1531.2	0.000609583
1540.85	0.00139275
1550.49	0.000677555
1560.13	0.00157031
1569.77	0.00114047
1579.41	0.00096555
1589.06	0.00113623
1598.7	0.00161886
1608.34	0.00153255
1617.98	0.00174853
1627.63	0.00148261
1637.27	0.00148938
1646.91	0.00156583
1656.55	0.000938066
1666.19	0.000695711
1675.84	0.000875118
1685.48	0.00103607
1695.12	0.00102908
1704.77	0.000543708
1714.41	0.000865106
1724.05	0.000704749
1733.69	0.000643087
1743.33	-0.000625366
1752.98	-0.00093948
1762.62	-0.000801723
1772.26	-0.000729534
1781.9	-0.0013603
1791.55	-0.00103959
1801.19	-0.00132857
1810.83	-0.00158771
1820.47	-0.00161412
1830.12	-0.00174825
1839.76	-0.00209808
1849.4	-0.00204625
1859.04	-0.00253761
1868.68	-0.00277189
1878.33	-0.00323976
1887.97	-0.00304586
1897.61	-0.00332948
1907.25	-0.00297832
1916.9	-0.00340675
1926.54	-0.00349364
1936.18	-0.00332546
1945.82	-0.00458478
1955.46	-0.00452801
1965.11	-0.00318848
1974.75	-0.00307344
1984.39	-0.00231899
1994.04	-0.00269524
2003.68	-0.00275402
2013.32	-0.000544379
2022.96	-0.00190219
2032.6	0.000155429
2042.25	-0.00151518
2051.89	-0.000553498
2061.53	-0.00122266
2071.17	-0.00217209
2080.82	-0.00190977
2090.46	-0.00290387
2100.1	-0.00223448
2109.74	-0.00342865
2119.39	-0.00344859
2129.03	-0.00360065
2138.67	-0.00337384
2148.31	-0.0042179
2157.95	-0.00382627
2167.6	-0.00332475
2177.24	-0.00243265
2186.88	-0.000213722
2196.52	-0.000593878
2206.17	-0.000186785
2215.81	0.000302628
2225.45	5.13778e-05
2235.09	0.000316649
2244.74	0.00116554
2254.38	0.000154182
2264.02	-0.00031896
2273.66	5.9407e-05
2283.3	-0.00102616
2292.95	-0.000419291
2302.59	-0.000185832
2312.23	-0.000477789
2321.87	0.000168222
2331.52	-6.63778e-05
2341.16	-0.000113421
2350.8	-0.00120476
2360.44	0.000163748
2370.09	-0.000203776
2379.73	-0.000702398
2389.37	-0.000982133
2399.01	-0.001193
2408.66	-0.000898852
2418.3	-0.00101608
2427.94	-0.000628313
2437.58	-0.000757082
2447.22	-0.000556023
2456.87	-0.000802983
2466.51	-0.00045793
2476.15	-0.000443791
2485.79	-0.000560512
2495.44	-0.000740802
2505.08	-0.00148026
2514.72	-0.00107138
2524.36	-0.0014666
2534.01	-0.000966965
2543.65	-0.00109859
2553.29	-0.000890566
2562.93	-0.00114925
2572.57	-0.000520007
2582.22	-0.000356167
2591.86	-0.000654861
2601.5	-0.000372857
2611.14	-0.000326952
2620.79	-6.84274e-05
2630.43	-0.000379872
2640.07	-1.70177e-05
2649.71	-0.000192937
2659.36	-0.000161417
2669	-0.000546405
2678.64	-0.000514865
2688.28	-0.000255745
2697.93	-0.000548256
2707.57	-0.000460826
2717.21	-0.000468947
2726.85	-0.00026208
2736.49	-0.000280781
2746.14	0.000236036
2755.78	-0.000259934
2765.42	-6.53294e-05
2775.06	0.000220966
2784.71	-8.70932e-05
2794.35	-0.00020968
2803.99	0.000175244
2813.63	0.000281591
2823.28	-0.000160372
2832.92	0.000124995
2842.56	0.000328823
2852.2	0.000497373
2861.84	0.000695531
2871.49	0.000355063
2881.13	6.64102e-05
2890.77	0.000558992
2900.41	0.000743
2910.06	0.000972525
2919.7	0.00162682
2929.34	0.00203948
2938.98	0.000847429
2948.62	0.000753073
2958.27	0.000486583
2967.91	0.000520091
2977.55	1.98438e-05
2987.2	9.755e-06
2996.84	4.77722e-05
3006.48	0.000369477
3016.12	9.6076e-06
3025.76	0.000248312
3035.41	1.89202e-05
3045.05	-0.000231765
3054.69	0.000188385
3064.33	0.000431548
3073.98	0.000517133
3083.62	0.000325039
3093.26	-0.00023246
3102.9	0.000907715
3112.55	0.00113858
3122.19	0.00100522
3131.83	0.000954704
3141.47	0.00128231
3151.11	0.000863885
3160.76	0.000962164
3170.4	0.00111036
3180.04	0.00123224
3189.68	0.000742896
3199.33	0.00116286
3208.97	0.00160238
3218.61	0.00160653
3228.25	0.00102996
3237.9	0.00134386
3247.54	0.000559574
3257.18	0.000777809
3266.82	0.00138584
3276.47	0.000918716
3286.11	0.000322079
3295.75	0.000904537
3305.39	0.000567928
3315.03	0.000222281
3324.68	0.000501698
3334.32	0.000984408
3343.96	2.88563e-05
3353.6	4.93266e-06
3363.25	0.000865704
3372.89	0.000979572
3382.53	0.000660986
3392.17	0.000979885
3401.82	-0.000285981
3411.46	0.000363845
3421.1	9.92583e-06
3430.74	-4.05113e-05
3440.39	-0.000350521
3450.03	0.000209526
3459.67	-0.000458235
3469.31	-0.000501561
3478.95	-0.000102808
3488.6	-0.000136599
3498.24	-0.00035552
3507.88	-0.000323833
3517.52	-0.000955314
3527.17	-0.00169166
3536.81	-0.000649315
3546.45	-0.00185147
3556.09	-0.00136224
3565.74	-0.000688327
3575.38	-0.00241398
3585.02	-0.0014327
3594.66	-0.00094061
3604.3	-0.0034956
3613.95	-0.00208815
3623.59	-0.00269835
3633.23	-0.00247571
3642.87	-0.00285037
3652.52	-0.00320731
3662.16	-0.00357585
3671.8	-0.00266632
3681.44	-0.00392232
3691.09	-0.00329828
3700.73	-0.00296651
3710.37	-0.00190197
3720.01	-0.00319422
3729.66	-0.00353333
3739.3	-0.00471332
3748.94	-0.00320494
3758.58	-0.00407489
3768.22	-0.00409255
3777.87	-0.00369439
3787.51	-0.00369727
3797.15	-0.0040567
3806.79	-0.00411652
3816.44	-0.00397891
3826.08	-0.00480996
3835.72	-0.00348083
3845.36	-0.00424152
3855.01	-0.00286794
3864.65	-0.00364884
3874.29	-0.00422235
3883.93	-0.00412745
3893.57	-0.0055378
3903.22	-0.00508246
3912.86	-0.00521468
3922.5	-0.00497453
3932.14	-0.00469815
3941.79	-0.00553337
3951.43	-0.00515904
3961.07	-0.00535996
3970.71	-0.00476897
3980.36	-0.00638507
3990	-0.00532947
3999.64	-0.00484829
