Measurement: Infrared, Infrared Data Processed
Mineral: Powellite
Rruff sample: R050355
Ideal chemistry: CaMo^6+^O_4_
Locality: Nasik, India
Source: George Rossman
Description: Light brown fragment
Measured chemistry: Ca_1.00_Mo_1.00_O_4_
x	intensity
399.193	0.0351195
408.835	0.048984
418.477	0.0924357
428.12	0.16931
437.762	0.102779
447.404	0.0585162
457.047	0.0450724
466.689	0.0449569
476.331	0.0476382
485.974	0.0546921
495.616	0.0638281
505.258	0.074796
514.901	0.0880755
524.543	0.102987
534.185	0.118407
543.828	0.135464
553.47	0.153001
563.112	0.170411
572.755	0.187711
582.397	0.206649
592.039	0.224785
601.682	0.241114
611.324	0.259149
620.966	0.277257
630.609	0.294523
640.251	0.313992
649.893	0.332847
659.536	0.35325
669.178	0.374115
678.82	0.398028
688.463	0.422207
698.105	0.446647
707.747	0.471782
717.39	0.4948
727.032	0.518239
736.674	0.542304
746.317	0.567359
755.959	0.586744
765.601	0.593179
775.244	0.575923
784.886	0.518247
794.528	0.428174
804.171	0.351252
813.813	0.298918
823.455	0.252513
833.098	0.214714
842.74	0.180395
852.382	0.147829
862.025	0.118375
871.667	0.092061
881.309	0.0694641
890.952	0.0457321
900.594	0.0225028
910.236	0.0087595
919.879	0.00613452
929.521	0.00498703
939.163	0.00416588
948.806	0.0034153
958.448	0.00382894
968.09	0.00379126
977.733	0.00376034
987.375	0.00421189
997.017	0.00426961
1006.66	0.00439296
1016.3	0.00471606
1025.94	0.00529805
1035.59	0.0055506
1045.23	0.00599558
1054.87	0.00583745
1064.51	0.0065677
1074.16	0.00717414
1083.8	0.00835185
1093.44	0.00831144
1103.08	0.00861651
1112.72	0.00859026
1122.37	0.00833876
1132.01	0.00792511
1141.65	0.00755153
1151.3	0.00731755
1160.94	0.0074288
1170.58	0.00704343
1180.22	0.00781527
1189.86	0.0084112
1199.51	0.00899363
1209.15	0.00950576
1218.79	0.00980346
1228.43	0.0102623
1238.08	0.0101949
1247.72	0.0106095
1257.36	0.0110437
1267	0.0115753
1276.64	0.0118727
1286.29	0.0128909
1295.93	0.0131748
1305.57	0.013601
1315.21	0.0142476
1324.86	0.014793
1334.5	0.0155459
1344.14	0.0162043
1353.78	0.0166192
1363.43	0.0170037
1373.07	0.0179284
1382.71	0.0186182
1392.35	0.0191396
1401.99	0.0196251
1411.64	0.0203104
1421.28	0.0214723
1430.92	0.0218311
1440.57	0.0223679
1450.21	0.0228908
1459.85	0.0239704
1469.49	0.0236202
1479.13	0.0237755
1488.78	0.0244253
1498.42	0.0247773
1508.06	0.0255495
1517.7	0.0264473
1527.35	0.0278976
1536.99	0.0297301
1546.63	0.0311249
1556.27	0.0321265
1565.91	0.0330787
1575.56	0.0340692
1585.2	0.0346191
1594.84	0.0349649
1604.48	0.0357557
1614.13	0.0364518
1623.77	0.0376079
1633.41	0.0380702
1643.05	0.0390705
1652.7	0.0423082
1662.34	0.0444546
1671.98	0.0432612
1681.62	0.042866
1691.27	0.0409417
1700.91	0.0387829
1710.55	0.0367792
1720.19	0.0368806
1729.84	0.0364893
1739.48	0.0350653
1749.12	0.0354869
1758.76	0.037269
1768.4	0.0393414
1778.05	0.0400979
1787.69	0.0391842
1797.33	0.0388354
1806.97	0.0385696
1816.62	0.0402023
1826.26	0.0409325
1835.9	0.0412373
1845.54	0.0413403
1855.18	0.0420633
1864.83	0.0426676
1874.47	0.0436824
1884.11	0.0442778
1893.75	0.0440063
1903.4	0.0447054
1913.04	0.0455884
1922.68	0.0454135
1932.32	0.0474357
1941.97	0.0465972
1951.61	0.04655
1961.25	0.0458237
1970.89	0.0468632
1980.54	0.0509334
1990.18	0.0524128
1999.82	0.053391
2009.46	0.0538796
2019.11	0.0516917
2028.75	0.0549532
2038.39	0.0518062
2048.03	0.0563263
2057.67	0.0547877
2067.32	0.0543352
2076.96	0.0555907
2086.6	0.055872
2096.24	0.0573379
2105.89	0.0566304
2115.53	0.0558872
2125.17	0.0553979
2134.81	0.0540354
2144.45	0.0538364
2154.1	0.0544643
2163.74	0.0607081
2173.38	0.0600861
2183.02	0.06031
2192.67	0.0603077
2202.31	0.064847
2211.95	0.0609092
2221.59	0.0623275
2231.24	0.0629331
2240.88	0.0643663
2250.52	0.0625494
2260.16	0.0622396
2269.8	0.0661971
2279.45	0.0651266
2289.09	0.0641836
2298.73	0.0640225
2308.38	0.0653081
2318.02	0.065588
2327.66	0.0644075
2337.3	0.0653418
2346.94	0.0649643
2356.59	0.0651269
2366.23	0.0646056
2375.87	0.0670689
2385.51	0.0653258
2395.16	0.0661749
2404.8	0.0690857
2414.44	0.0671741
2424.08	0.0696347
2433.72	0.0686132
2443.37	0.0712756
2453.01	0.0731716
2462.65	0.071509
2472.29	0.071826
2481.94	0.0718475
2491.58	0.074078
2501.22	0.0759303
2510.86	0.0739917
2520.51	0.0746481
2530.15	0.0739689
2539.79	0.0759358
2549.43	0.07572
2559.07	0.0767292
2568.72	0.0763301
2578.36	0.0774942
2588	0.0778296
2597.64	0.0775652
2607.29	0.0772308
2616.93	0.0786617
2626.57	0.0785969
2636.21	0.0776748
2645.86	0.0783889
2655.5	0.0786383
2665.14	0.0787485
2674.78	0.0790077
2684.43	0.0789808
2694.07	0.0797405
2703.71	0.0790726
2713.35	0.0807205
2722.99	0.081038
2732.64	0.080782
2742.28	0.0816039
2751.92	0.0825228
2761.56	0.0823706
2771.21	0.0825628
2780.85	0.0838955
2790.49	0.0834683
2800.13	0.0855984
2809.78	0.084057
2819.42	0.0849106
2829.06	0.0863651
2838.7	0.0848756
2848.34	0.0820662
2857.99	0.0840806
2867.63	0.0845472
2877.27	0.0868186
2886.91	0.0864208
2896.56	0.0846933
2906.2	0.0872492
2915.84	0.0830346
2925.48	0.0832272
2935.13	0.0861987
2944.77	0.0882948
2954.41	0.0876365
2964.05	0.0905172
2973.7	0.0925055
2983.34	0.0904323
2992.98	0.0917979
3002.62	0.0929624
3012.26	0.0934222
3021.91	0.0942265
3031.55	0.0949935
3041.19	0.0965456
3050.83	0.095389
3060.48	0.0972031
3070.12	0.0985367
3079.76	0.097726
3089.4	0.0994198
3099.05	0.0990677
3108.69	0.102007
3118.33	0.101273
3127.97	0.102134
3137.61	0.101538
3147.26	0.100406
3156.9	0.101587
3166.54	0.101262
3176.18	0.102608
3185.83	0.104667
3195.47	0.103107
3205.11	0.104981
3214.75	0.104964
3224.4	0.107362
3234.04	0.106294
3243.68	0.107482
3253.32	0.108034
3262.97	0.108174
3272.61	0.107291
3282.25	0.109668
3291.89	0.111245
3301.53	0.109848
3311.18	0.110282
3320.82	0.110625
3330.46	0.111844
3340.1	0.11187
3349.75	0.11045
3359.39	0.113099
3369.03	0.110027
3378.67	0.112188
3388.32	0.113866
3397.96	0.114685
3407.6	0.111985
3417.24	0.1125
3426.89	0.115357
3436.53	0.114213
3446.17	0.118675
3455.81	0.11519
3465.45	0.119066
3475.1	0.114469
3484.74	0.111835
3494.38	0.116838
3504.02	0.115414
3513.67	0.113868
3523.31	0.113558
3532.95	0.115228
3542.59	0.113868
3552.24	0.114634
3561.88	0.113588
3571.52	0.113496
3581.16	0.112575
3590.8	0.116517
3600.45	0.117129
3610.09	0.11424
3619.73	0.117014
3629.37	0.12143
3639.02	0.113511
3648.66	0.114802
3658.3	0.113977
3667.94	0.118494
3677.59	0.115864
3687.23	0.116515
3696.87	0.116412
3706.51	0.121389
3716.16	0.112908
3725.8	0.121454
3735.44	0.119552
3745.08	0.119092
3754.72	0.122093
3764.37	0.118072
3774.01	0.118325
3783.65	0.123942
3793.29	0.119718
3802.94	0.125145
3812.58	0.124569
3822.22	0.122151
3831.86	0.123978
3841.51	0.120619
3851.15	0.122537
3860.79	0.12222
3870.43	0.127604
3880.07	0.122919
3889.72	0.122725
3899.36	0.12234
3909	0.123292
3918.64	0.126881
3928.29	0.125945
3937.93	0.128367
3947.57	0.120539
3957.21	0.125681
3966.86	0.12579
3976.5	0.128663
3986.14	0.124981
3995.78	0.125402
