Measurement: Infrared, Infrared Data Processed
Mineral: Prehnite
Rruff sample: R040047
Ideal chemistry: Ca_2_Al(Si_3_Al)O_10_(OH)_2_
Locality: Chloride, Mohave County, Arizona, USA
Source: University of Arizona Mineral Museum
Description: Green coarsely crystalline massive
Measured chemistry: Light bands: Ca_2.01_(Al_1.61_Fe_0.43_)Si_3.08_O_10_(OH)_2_; Dark bands: Ca_1.99_(Al_1.82_Fe_0.19_)Si_3.04_O_10_(OH)_2_
x	intensity
399.193	0
408.835	0.189367
418.477	0.193743
428.12	0.189875
437.762	0.172523
447.404	0.147598
457.047	0.146543
466.689	0.150033
476.331	0.134926
485.974	0.114634
495.616	0.107336
505.258	0.106629
514.901	0.100964
524.543	0.102283
534.185	0.101859
543.828	0.0871587
553.47	0.0640944
563.112	0.0415395
572.755	0.0257472
582.397	0.0189639
592.039	0.0162678
601.682	0.0154536
611.324	0.0152696
620.966	0.016308
630.609	0.0194682
640.251	0.0235947
649.893	0.0231549
659.536	0.0306555
669.178	0.0356582
678.82	0.0390188
688.463	0.0459417
698.105	0.0576445
707.747	0.0762016
717.39	0.105423
727.032	0.145523
736.674	0.185897
746.317	0.171348
755.959	0.146365
765.601	0.113799
775.244	0.0792809
784.886	0.0710334
794.528	0.0806981
804.171	0.090843
813.813	0.0920618
823.455	0.0630721
833.098	0.050515
842.74	0.0541764
852.382	0.0572695
862.025	0.0713541
871.667	0.0900393
881.309	0.101004
890.952	0.123704
900.594	0.16496
910.236	0.210298
919.879	0.245678
929.521	0.246836
939.163	0.220757
948.806	0.189955
958.448	0.183588
968.09	0.201766
977.733	0.231087
987.375	0.225527
997.017	0.203557
1006.66	0.173389
1016.3	0.140195
1025.94	0.109586
1035.59	0.0813712
1045.23	0.0737713
1054.87	0.120327
1064.51	0.140553
1074.16	0.136903
1083.8	0.110847
1093.44	0.0880572
1103.08	0.072915
1112.72	0.058147
1122.37	0.0409336
1132.01	0.025643
1141.65	0.0158825
1151.3	0.0112134
1160.94	0.00895802
1170.58	0.00754402
1180.22	0.00681228
1189.86	0.00571491
1199.51	0.00515266
1209.15	0.00448445
1218.79	0.00434895
1228.43	0.003931
1238.08	0.00362586
1247.72	0.00339339
1257.36	0.00348904
1267	0.00319515
1276.64	0.00319047
1286.29	0.00299075
1295.93	0.00305477
1305.57	0.00291162
1315.21	0.00319509
1324.86	0.00313535
1334.5	0.00341977
1344.14	0.00327346
1353.78	0.00361073
1363.43	0.00382747
1373.07	0.00417043
1382.71	0.00411016
1392.35	0.0046177
1401.99	0.00520543
1411.64	0.0063563
1421.28	0.00717237
1430.92	0.00735328
1440.57	0.00744833
1450.21	0.0077706
1459.85	0.00795502
1469.49	0.00768457
1479.13	0.00719769
1488.78	0.00645778
1498.42	0.00645085
1508.06	0.00638716
1517.7	0.00643959
1527.35	0.00662032
1536.99	0.00705774
1546.63	0.00748915
1556.27	0.007554
1565.91	0.00784628
1575.56	0.00760544
1585.2	0.00773142
1594.84	0.00730809
1604.48	0.00740519
1614.13	0.00706071
1623.77	0.00677822
1633.41	0.00701417
1643.05	0.00685008
1652.7	0.00670525
1662.34	0.0069343
1671.98	0.00655724
1681.62	0.00685718
1691.27	0.00688148
1700.91	0.0068807
1710.55	0.0069537
1720.19	0.00655367
1729.84	0.00650719
1739.48	0.00617939
1749.12	0.00591182
1758.76	0.00618107
1768.4	0.00568881
1778.05	0.00597076
1787.69	0.00608294
1797.33	0.00607816
1806.97	0.005437
1816.62	0.00520132
1826.26	0.00566982
1835.9	0.0050086
1845.54	0.00462967
1855.18	0.0048883
1864.83	0.00425317
1874.47	0.00514627
1884.11	0.00430902
1893.75	0.00460861
1903.4	0.00378677
1913.04	0.00374392
1922.68	0.0016859
1932.32	0.00231534
1941.97	0.00160186
1951.61	0.000461344
1961.25	-0.000978021
1970.89	-0.000745669
1980.54	0.0012555
1990.18	0.000415879
1999.82	-0.000750504
2009.46	-0.00341319
2019.11	-0.000541719
2028.75	-0.000985401
2038.39	0.000203414
2048.03	0.00261662
2057.67	0.00433266
2067.32	0.00373368
2076.96	0.00556511
2086.6	0.00606772
2096.24	0.0055057
2105.89	0.00274405
2115.53	0.0036329
2125.17	0.00177674
2134.81	0.00141351
2144.45	-0.00197993
2154.1	-0.00309824
2163.74	0.000740125
2173.38	0.000216349
2183.02	0.00150203
2192.67	0.00453739
2202.31	0.00671767
2211.95	0.00563143
2221.59	0.00709555
2231.24	0.00484188
2240.88	0.00696689
2250.52	0.00853266
2260.16	0.00854081
2269.8	0.00851862
2279.45	0.0090634
2289.09	0.0101891
2298.73	0.0104131
2308.38	0.0101077
2318.02	0.0100781
2327.66	0.00957251
2337.3	0.00894058
2346.94	0.00983688
2356.59	0.00979235
2366.23	0.00937561
2375.87	0.00878895
2385.51	0.00970402
2395.16	0.00978692
2404.8	0.00946999
2414.44	0.0100194
2424.08	0.00983338
2433.72	0.00996618
2443.37	0.0111671
2453.01	0.0109067
2462.65	0.0104687
2472.29	0.0103499
2481.94	0.0107864
2491.58	0.0101485
2501.22	0.0104495
2510.86	0.0114606
2520.51	0.0101843
2530.15	0.00982933
2539.79	0.0105368
2549.43	0.0109392
2559.07	0.0111606
2568.72	0.0114434
2578.36	0.0111722
2588	0.0119351
2597.64	0.0112753
2607.29	0.0117474
2616.93	0.0117109
2626.57	0.0118054
2636.21	0.0124177
2645.86	0.0123037
2655.5	0.0117381
2665.14	0.011257
2674.78	0.0116144
2684.43	0.0118401
2694.07	0.0111509
2703.71	0.0117627
2713.35	0.0114803
2722.99	0.0116013
2732.64	0.0121619
2742.28	0.0110832
2751.92	0.0124242
2761.56	0.0122897
2771.21	0.0126463
2780.85	0.011915
2790.49	0.0126301
2800.13	0.0124725
2809.78	0.0118423
2819.42	0.0120354
2829.06	0.0124252
2838.7	0.0132693
2848.34	0.0133646
2857.99	0.0136677
2867.63	0.0128621
2877.27	0.013597
2886.91	0.013146
2896.56	0.0136819
2906.2	0.0132911
2915.84	0.0135158
2925.48	0.0141827
2935.13	0.0135238
2944.77	0.0129109
2954.41	0.0128606
2964.05	0.0135993
2973.7	0.0129795
2983.34	0.012537
2992.98	0.013544
3002.62	0.0143323
3012.26	0.0132874
3021.91	0.0120198
3031.55	0.0139112
3041.19	0.0131941
3050.83	0.0142672
3060.48	0.0145468
3070.12	0.014919
3079.76	0.0144082
3089.4	0.0142762
3099.05	0.0145028
3108.69	0.01471
3118.33	0.0142879
3127.97	0.0152771
3137.61	0.0148599
3147.26	0.0162994
3156.9	0.0144624
3166.54	0.0153557
3176.18	0.0164231
3185.83	0.0169593
3195.47	0.0158079
3205.11	0.0160144
3214.75	0.0166021
3224.4	0.0161361
3234.04	0.0164558
3243.68	0.0160423
3253.32	0.0165545
3262.97	0.0174227
3272.61	0.0163303
3282.25	0.0176628
3291.89	0.0178277
3301.53	0.0190167
3311.18	0.0176444
3320.82	0.017661
3330.46	0.0174739
3340.1	0.0189542
3349.75	0.0190517
3359.39	0.0186151
3369.03	0.0195908
3378.67	0.0212757
3388.32	0.0207058
3397.96	0.0215216
3407.6	0.0218699
3417.24	0.0234901
3426.89	0.0288285
3436.53	0.0358755
3446.17	0.0451655
3455.81	0.048377
3465.45	0.0514186
3475.1	0.0587973
3484.74	0.0706519
3494.38	0.0696956
3504.02	0.0322215
3513.67	0.0190772
3523.31	0.0153223
3532.95	0.0145184
3542.59	0.0149181
3552.24	0.0149566
3561.88	0.0131827
3571.52	0.0147017
3581.16	0.0146095
3590.8	0.0159771
3600.45	0.0160458
3610.09	0.0142353
3619.73	0.0155857
3629.37	0.0163734
3639.02	0.0117785
3648.66	0.0130573
3658.3	0.0165877
3667.94	0.0142403
3677.59	0.0133085
3687.23	0.0130958
3696.87	0.0157103
3706.51	0.0132359
3716.16	0.0160134
3725.8	0.014698
3735.44	0.0161194
3745.08	0.0151629
3754.72	0.0162259
3764.37	0.0159898
3774.01	0.0151767
3783.65	0.0146968
3793.29	0.0167284
3802.94	0.0169814
3812.58	0.0188919
3822.22	0.0174855
3831.86	0.0165542
3841.51	0.0140491
3851.15	0.0151018
3860.79	0.0179751
3870.43	0.0182124
3880.07	0.0196354
3889.72	0.0182878
3899.36	0.0167615
3909	0.0153008
3918.64	0.0181704
3928.29	0.0186499
3937.93	0.0162334
3947.57	0.0174033
3957.21	0.0150775
3966.86	0.0184051
3976.5	0.0145263
3986.14	0.0168748
3995.78	0.0157511
