Measurement: Infrared, Infrared Data Processed
Mineral: Prehnite
Rruff sample: R050410
Ideal chemistry: Ca_2_Al(Si_3_Al)O_10_(OH)_2_
Locality: Topel, Namibia
Source: John Lucking
Description: Aggregate of pale green prismatic crystals
Measured chemistry: Ca_1.98_Al_0.99_(Si_3.02_Al_0.99_)O_10_(OH)_2
x	intensity
399.193	0.134372
408.835	0.160693
418.477	0.157891
428.12	0.135586
437.762	0.102613
447.404	0.0788342
457.047	0.0930186
466.689	0.122713
476.331	0.116859
485.974	0.0995942
495.616	0.0896658
505.258	0.0923105
514.901	0.102553
524.543	0.11733
534.185	0.100416
543.828	0.0797787
553.47	0.0569126
563.112	0.0392134
572.755	0.0243125
582.397	0.0149375
592.039	0.0132582
601.682	0.01283
611.324	0.0137226
620.966	0.0145387
630.609	0.0167785
640.251	0.0214307
649.893	0.0192521
659.536	0.0243345
669.178	0.0315699
678.82	0.0335043
688.463	0.0387406
698.105	0.0451018
707.747	0.0576083
717.39	0.0753214
727.032	0.0997612
736.674	0.129059
746.317	0.126098
755.959	0.107646
765.601	0.0945969
775.244	0.072114
784.886	0.048903
794.528	0.0606744
804.171	0.0820867
813.813	0.0851441
823.455	0.0622364
833.098	0.0419153
842.74	0.0442203
852.382	0.0560123
862.025	0.0769675
871.667	0.0768125
881.309	0.0675173
890.952	0.0754671
900.594	0.0991425
910.236	0.13075
919.879	0.164285
929.521	0.179157
939.163	0.165198
948.806	0.142767
958.448	0.124559
968.09	0.137204
977.733	0.174263
987.375	0.173142
997.017	0.156681
1006.66	0.135008
1016.3	0.108831
1025.94	0.0854063
1035.59	0.0648765
1045.23	0.0535007
1054.87	0.0849189
1064.51	0.103543
1074.16	0.107864
1083.8	0.0974458
1093.44	0.0749789
1103.08	0.0548998
1112.72	0.0402354
1122.37	0.0274944
1132.01	0.0172104
1141.65	0.0104405
1151.3	0.0072879
1160.94	0.00525679
1170.58	0.00381789
1180.22	0.00336904
1189.86	0.00287632
1199.51	0.0022604
1209.15	0.00205175
1218.79	0.00186618
1228.43	0.00163767
1238.08	0.00134093
1247.72	0.00115384
1257.36	0.000919325
1267	0.00120348
1276.64	0.000975968
1286.29	0.00126135
1295.93	0.00140768
1305.57	0.0011333
1315.21	0.00155219
1324.86	0.00138203
1334.5	0.00171095
1344.14	0.00195939
1353.78	0.00207742
1363.43	0.0022486
1373.07	0.0023938
1382.71	0.00278157
1392.35	0.00386523
1401.99	0.00432278
1411.64	0.00497836
1421.28	0.00564512
1430.92	0.00580769
1440.57	0.00610417
1450.21	0.00644744
1459.85	0.00665443
1469.49	0.00599859
1479.13	0.00586022
1488.78	0.00572884
1498.42	0.00534307
1508.06	0.00495606
1517.7	0.00523177
1527.35	0.00503596
1536.99	0.00485206
1546.63	0.00485653
1556.27	0.00502815
1565.91	0.00464967
1575.56	0.00455604
1585.2	0.00457066
1594.84	0.0039045
1604.48	0.00429052
1614.13	0.00440349
1623.77	0.00441003
1633.41	0.00450648
1643.05	0.00507371
1652.7	0.00478605
1662.34	0.0049378
1671.98	0.00471933
1681.62	0.00435755
1691.27	0.00456628
1700.91	0.00497316
1710.55	0.00429346
1720.19	0.00464685
1729.84	0.00401495
1739.48	0.00397527
1749.12	0.00379115
1758.76	0.00402011
1768.4	0.00429465
1778.05	0.00393586
1787.69	0.00403442
1797.33	0.00449181
1806.97	0.00433329
1816.62	0.00447577
1826.26	0.00502044
1835.9	0.00459413
1845.54	0.00499611
1855.18	0.00409388
1864.83	0.00314754
1874.47	0.00338356
1884.11	0.00315251
1893.75	0.00238888
1903.4	0.00248125
1913.04	0.00267179
1922.68	0.00316448
1932.32	0.00334566
1941.97	0.000707515
1951.61	-0.00151581
1961.25	0.00105073
1970.89	-0.00164081
1980.54	-0.00116088
1990.18	0.0020906
1999.82	-0.00149041
2009.46	-0.00402369
2019.11	0.000322656
2028.75	0.00347219
2038.39	-0.000229809
2048.03	0.0026421
2057.67	0.00304289
2067.32	0.00345293
2076.96	0.00466351
2086.6	0.00478142
2096.24	0.00518386
2105.89	0.0053242
2115.53	0.00466282
2125.17	0.00183347
2134.81	-0.00219662
2144.45	-0.0017958
2154.1	-0.000736289
2163.74	0.00402919
2173.38	-0.00126356
2183.02	0.00215107
2192.67	0.00251256
2202.31	0.00571017
2211.95	0.00205324
2221.59	0.00590576
2231.24	0.00884888
2240.88	0.007638
2250.52	0.00725542
2260.16	0.00852196
2269.8	0.00899395
2279.45	0.00892583
2289.09	0.00998477
2298.73	0.00910311
2308.38	0.0096327
2318.02	0.00999272
2327.66	0.00957699
2337.3	0.00904204
2346.94	0.00951732
2356.59	0.0104078
2366.23	0.00891832
2375.87	0.00732046
2385.51	0.00800919
2395.16	0.00835872
2404.8	0.00848595
2414.44	0.00854861
2424.08	0.0101422
2433.72	0.00919484
2443.37	0.00902427
2453.01	0.008134
2462.65	0.00967714
2472.29	0.00725223
2481.94	0.00845865
2491.58	0.00932265
2501.22	0.00863456
2510.86	0.0088474
2520.51	0.00930504
2530.15	0.0103635
2539.79	0.00976306
2549.43	0.0089076
2559.07	0.0101662
2568.72	0.0110606
2578.36	0.0107198
2588	0.00935619
2597.64	0.0108351
2607.29	0.00960328
2616.93	0.0112404
2626.57	0.0119601
2636.21	0.0108691
2645.86	0.0109076
2655.5	0.0110383
2665.14	0.0106346
2674.78	0.0107804
2684.43	0.0100584
2694.07	0.00997171
2703.71	0.0100712
2713.35	0.0102662
2722.99	0.0111286
2732.64	0.0111621
2742.28	0.0119573
2751.92	0.0111067
2761.56	0.0114743
2771.21	0.0118531
2780.85	0.0122632
2790.49	0.0106958
2800.13	0.0111614
2809.78	0.011812
2819.42	0.0122338
2829.06	0.0118976
2838.7	0.0119989
2848.34	0.0134513
2857.99	0.0115689
2867.63	0.0121137
2877.27	0.0120075
2886.91	0.0121234
2896.56	0.0121758
2906.2	0.012717
2915.84	0.0144942
2925.48	0.0104205
2935.13	0.011947
2944.77	0.0103956
2954.41	0.0117446
2964.05	0.011089
2973.7	0.0119711
2983.34	0.0104756
2992.98	0.011576
3002.62	0.0117802
3012.26	0.0130302
3021.91	0.0105367
3031.55	0.0116144
3041.19	0.0119252
3050.83	0.0132702
3060.48	0.0118692
3070.12	0.0139813
3079.76	0.0146561
3089.4	0.0118665
3099.05	0.0113722
3108.69	0.0146316
3118.33	0.0139318
3127.97	0.0136153
3137.61	0.0147558
3147.26	0.0131701
3156.9	0.0136947
3166.54	0.0123684
3176.18	0.0151869
3185.83	0.0135455
3195.47	0.0140169
3205.11	0.0122462
3214.75	0.0145494
3224.4	0.0122466
3234.04	0.0157668
3243.68	0.0130908
3253.32	0.0140626
3262.97	0.0153967
3272.61	0.0132731
3282.25	0.0132757
3291.89	0.0157077
3301.53	0.014965
3311.18	0.0163191
3320.82	0.0157233
3330.46	0.0167169
3340.1	0.0158734
3349.75	0.0180996
3359.39	0.0147008
3369.03	0.0153679
3378.67	0.0180994
3388.32	0.0169204
3397.96	0.0172966
3407.6	0.0199227
3417.24	0.0188827
3426.89	0.022534
3436.53	0.0207743
3446.17	0.0266253
3455.81	0.0333613
3465.45	0.0398557
3475.1	0.061721
3484.74	0.0763849
3494.38	0.0699572
3504.02	0.0277212
3513.67	0.0152392
3523.31	0.0118987
3532.95	0.00924364
3542.59	0.0106787
3552.24	0.0133839
3561.88	0.0144028
3571.52	0.00854199
3581.16	0.0121522
3590.8	0.0112139
3600.45	0.0151217
3610.09	0.00930661
3619.73	0.00818148
3629.37	0.0101875
3639.02	0.0120527
3648.66	0.0117909
3658.3	0.00717996
3667.94	0.012275
3677.59	0.0148502
3687.23	0.0157263
3696.87	0.009779
3706.51	0.0117285
3716.16	0.011099
3725.8	0.0125178
3735.44	0.0160554
3745.08	0.0098526
3754.72	0.0160908
3764.37	0.013492
3774.01	0.0139069
3783.65	0.0112034
3793.29	0.0155707
3802.94	0.0162958
3812.58	0.0132778
3822.22	0.0151577
3831.86	0.0155648
3841.51	0.0115745
3851.15	0.0152858
3860.79	0.015113
3870.43	0.0147636
3880.07	0.0123157
3889.72	0.0153065
3899.36	0.0158981
3909	0.0146464
3918.64	0.0142752
3928.29	0.0176074
3937.93	0.0160958
3947.57	0.0103125
3957.21	0.0170395
3966.86	0.014571
3976.5	0.0185276
3986.14	0.0155646
3995.78	0.0160794
