Measurement: Infrared, Infrared Data Processed
Mineral: Priceite
Rruff sample: R050420
Ideal chemistry: Ca_2_B_5_O_7_(OH)_5_H_2_O
Locality: 20-Mule-Team Canyon, Death Valley, California, USA
Source: Marcus Origlieri
Description: White cryptocrystalline massive
Measured chemistry: Ca_2.00_B_5.00_O_7_(OH)_5_Â·H_2_O
x	intensity
399.193	0.053805
408.835	0.0599533
418.477	0.0686014
428.12	0.0764544
437.762	0.0952363
447.404	0.100469
457.047	0.123258
466.689	0.170714
476.331	0.167727
485.974	0.119805
495.616	0.136435
505.258	0.164141
514.901	0.183002
524.543	0.152496
534.185	0.128899
543.828	0.118949
553.47	0.117912
563.112	0.121089
572.755	0.157932
582.397	0.132844
592.039	0.109009
601.682	0.107119
611.324	0.0956053
620.966	0.0860154
630.609	0.0876113
640.251	0.0981011
649.893	0.109215
659.536	0.119733
669.178	0.130491
678.82	0.126009
688.463	0.126871
698.105	0.138766
707.747	0.174072
717.39	0.187584
727.032	0.144108
736.674	0.126577
746.317	0.136575
755.959	0.165164
765.601	0.193438
775.244	0.241005
784.886	0.284759
794.528	0.260503
804.171	0.226012
813.813	0.213163
823.455	0.222351
833.098	0.217607
842.74	0.239295
852.382	0.304126
862.025	0.387005
871.667	0.447798
881.309	0.488839
890.952	0.475178
900.594	0.440536
910.236	0.392872
919.879	0.351911
929.521	0.325314
939.163	0.32164
948.806	0.306409
958.448	0.266989
968.09	0.235288
977.733	0.207226
987.375	0.227859
997.017	0.264575
1006.66	0.304391
1016.3	0.296922
1025.94	0.249654
1035.59	0.244092
1045.23	0.286796
1054.87	0.330589
1064.51	0.331408
1074.16	0.277466
1083.8	0.227418
1093.44	0.194608
1103.08	0.172621
1112.72	0.158132
1122.37	0.147555
1132.01	0.135118
1141.65	0.119575
1151.3	0.101085
1160.94	0.0905077
1170.58	0.0837855
1180.22	0.0738005
1189.86	0.0683842
1199.51	0.0654254
1209.15	0.0594426
1218.79	0.0504901
1228.43	0.0408568
1238.08	0.0367659
1247.72	0.0367072
1257.36	0.040652
1267	0.0514586
1276.64	0.0792654
1286.29	0.104816
1295.93	0.103063
1305.57	0.124004
1315.21	0.125408
1324.86	0.0982351
1334.5	0.126886
1344.14	0.193095
1353.78	0.183952
1363.43	0.163047
1373.07	0.176972
1382.71	0.127847
1392.35	0.0918423
1401.99	0.0634222
1411.64	0.0449167
1421.28	0.0541646
1430.92	0.0426635
1440.57	0.0246566
1450.21	0.0183
1459.85	0.0149514
1469.49	0.0133796
1479.13	0.0119151
1488.78	0.0106705
1498.42	0.010397
1508.06	0.0102265
1517.7	0.00984618
1527.35	0.0104239
1536.99	0.010673
1546.63	0.0112261
1556.27	0.0114609
1565.91	0.0122228
1575.56	0.012442
1585.2	0.013679
1594.84	0.0150094
1604.48	0.0163811
1614.13	0.0179978
1623.77	0.0199183
1633.41	0.0208191
1643.05	0.0251742
1652.7	0.0296495
1662.34	0.0326551
1671.98	0.0272787
1681.62	0.0200943
1691.27	0.0150223
1700.91	0.0119912
1710.55	0.010569
1720.19	0.00986207
1729.84	0.00970197
1739.48	0.00747873
1749.12	0.00743508
1758.76	0.00853725
1768.4	0.00822216
1778.05	0.00781843
1787.69	0.00837499
1797.33	0.00796646
1806.97	0.00835816
1816.62	0.00725003
1826.26	0.00790861
1835.9	0.00833975
1845.54	0.00751799
1855.18	0.00747555
1864.83	0.00714635
1874.47	0.00757815
1884.11	0.00572693
1893.75	0.00690157
1903.4	0.00675185
1913.04	0.00654734
1922.68	0.00498668
1932.32	0.00482241
1941.97	0.00375963
1951.61	0.00455608
1961.25	0.0037982
1970.89	0.00107034
1980.54	0.00189374
1990.18	0.00407886
1999.82	0.001069
2009.46	0.000294673
2019.11	-0.00113104
2028.75	-0.000654754
2038.39	0.00202264
2048.03	0.00243093
2057.67	0.00272531
2067.32	0.00614096
2076.96	0.0050754
2086.6	0.00358509
2096.24	0.00526433
2105.89	0.0064082
2115.53	0.00527202
2125.17	0.00389224
2134.81	0.000975524
2144.45	-0.00420636
2154.1	-0.00530422
2163.74	0.00312658
2173.38	0.00253653
2183.02	0.00416216
2192.67	0.00402848
2202.31	0.0093735
2211.95	0.00524772
2221.59	0.00796437
2231.24	0.00700408
2240.88	0.00847786
2250.52	0.00882573
2260.16	0.00832738
2269.8	0.0113366
2279.45	0.0139086
2289.09	0.0137414
2298.73	0.0137954
2308.38	0.0138851
2318.02	0.0141482
2327.66	0.0118666
2337.3	0.0117312
2346.94	0.0139819
2356.59	0.0108504
2366.23	0.0108891
2375.87	0.0132261
2385.51	0.0137548
2395.16	0.0137569
2404.8	0.014061
2414.44	0.0148227
2424.08	0.0155857
2433.72	0.0145924
2443.37	0.0164136
2453.01	0.0153113
2462.65	0.0180515
2472.29	0.0171054
2481.94	0.0183103
2491.58	0.018579
2501.22	0.0190406
2510.86	0.0222544
2520.51	0.0219351
2530.15	0.0280012
2539.79	0.0285226
2549.43	0.0257128
2559.07	0.0274982
2568.72	0.0265947
2578.36	0.0285807
2588	0.0292993
2597.64	0.0258057
2607.29	0.0250033
2616.93	0.0235148
2626.57	0.0224367
2636.21	0.0235882
2645.86	0.0240992
2655.5	0.0235315
2665.14	0.0219068
2674.78	0.0217356
2684.43	0.0215334
2694.07	0.0222417
2703.71	0.0234386
2713.35	0.0231637
2722.99	0.0247567
2732.64	0.0247467
2742.28	0.024922
2751.92	0.0249317
2761.56	0.0263068
2771.21	0.0267294
2780.85	0.027616
2790.49	0.0287292
2800.13	0.0305024
2809.78	0.031873
2819.42	0.032302
2829.06	0.0328251
2838.7	0.0347767
2848.34	0.0358773
2857.99	0.0355199
2867.63	0.0402391
2877.27	0.0392878
2886.91	0.0416826
2896.56	0.0440566
2906.2	0.0475071
2915.84	0.0502095
2925.48	0.050735
2935.13	0.0510992
2944.77	0.054528
2954.41	0.0586853
2964.05	0.0582206
2973.7	0.060098
2983.34	0.0638625
2992.98	0.0667131
3002.62	0.0707882
3012.26	0.0758728
3021.91	0.0837498
3031.55	0.0931835
3041.19	0.1024
3050.83	0.110707
3060.48	0.121415
3070.12	0.129679
3079.76	0.132126
3089.4	0.130431
3099.05	0.127119
3108.69	0.121729
3118.33	0.112798
3127.97	0.102493
3137.61	0.0949517
3147.26	0.0892006
3156.9	0.0840235
3166.54	0.08121
3176.18	0.0785999
3185.83	0.0759479
3195.47	0.0733426
3205.11	0.0730052
3214.75	0.0698466
3224.4	0.0696611
3234.04	0.0701935
3243.68	0.0725429
3253.32	0.0677092
3262.97	0.0703158
3272.61	0.0727363
3282.25	0.0721686
3291.89	0.0717799
3301.53	0.0684442
3311.18	0.0733476
3320.82	0.072978
3330.46	0.0759232
3340.1	0.0781731
3349.75	0.0801883
3359.39	0.0839467
3369.03	0.0871476
3378.67	0.0899734
3388.32	0.0919065
3397.96	0.0986957
3407.6	0.096488
3417.24	0.105017
3426.89	0.101337
3436.53	0.104828
3446.17	0.113411
3455.81	0.110977
3465.45	0.112042
3475.1	0.108197
3484.74	0.106383
3494.38	0.0998375
3504.02	0.096521
3513.67	0.0949644
3523.31	0.0999471
3532.95	0.104177
3542.59	0.115226
3552.24	0.121699
3561.88	0.101654
3571.52	0.0846152
3581.16	0.0934011
3590.8	0.0747709
3600.45	0.0543725
3610.09	0.0451633
3619.73	0.0352305
3629.37	0.0359511
3639.02	0.0307191
3648.66	0.0269774
3658.3	0.0259827
3667.94	0.0303277
3677.59	0.0298252
3687.23	0.0273386
3696.87	0.0287348
3706.51	0.0334083
3716.16	0.0292416
3725.8	0.0263136
3735.44	0.031342
3745.08	0.0262011
3754.72	0.0287596
3764.37	0.0293146
3774.01	0.0301123
3783.65	0.0328203
3793.29	0.0293485
3802.94	0.0342322
3812.58	0.0299375
3822.22	0.0346103
3831.86	0.0326444
3841.51	0.0308308
3851.15	0.0324747
3860.79	0.0322052
3870.43	0.0321827
3880.07	0.0364137
3889.72	0.0374918
3899.36	0.0353872
3909	0.0366843
3918.64	0.0348744
3928.29	0.0374672
3937.93	0.0325797
3947.57	0.0430041
3957.21	0.043584
3966.86	0.0373642
3976.5	0.040012
3986.14	0.0371153
3995.78	0.0381359
