Measurement: Infrared, Infrared Data Processed
Mineral: Prosopite
Rruff sample: R050668
Ideal chemistry: CaAl_2_F_4_(OH)_4_
Locality: Grand Reef mine, Klondyke, Aravaipa District, Graham County, Arizona, USA
Source: University of Arizona Mineral Museum
Description: Light-blue massive coating on quartz
x	intensity
399.193	0.164277
408.835	0.232322
418.477	0.180892
428.12	0.108628
437.762	0.0894305
447.404	0.118887
457.047	0.181243
466.689	0.208402
476.331	0.224826
485.974	0.241654
495.616	0.194914
505.258	0.143052
514.901	0.218581
524.543	0.329002
534.185	0.363342
543.828	0.298411
553.47	0.21279
563.112	0.164683
572.755	0.165836
582.397	0.179685
592.039	0.193475
601.682	0.203032
611.324	0.201373
620.966	0.188526
630.609	0.170418
640.251	0.143325
649.893	0.112116
659.536	0.0846405
669.178	0.0685131
678.82	0.0599676
688.463	0.0564989
698.105	0.0583715
707.747	0.0651193
717.39	0.0729634
727.032	0.078772
736.674	0.0766098
746.317	0.069823
755.959	0.0645311
765.601	0.0640226
775.244	0.0710977
784.886	0.0860761
794.528	0.112209
804.171	0.137303
813.813	0.129948
823.455	0.106183
833.098	0.08372
842.74	0.0664579
852.382	0.0561286
862.025	0.0523654
871.667	0.0547295
881.309	0.0639175
890.952	0.0787921
900.594	0.10096
910.236	0.137659
919.879	0.191291
929.521	0.195053
939.163	0.168071
948.806	0.144166
958.448	0.118794
968.09	0.0947817
977.733	0.0737808
987.375	0.0563901
997.017	0.042472
1006.66	0.0317423
1016.3	0.0243664
1025.94	0.0199881
1035.59	0.017657
1045.23	0.0162932
1054.87	0.0148526
1064.51	0.0128701
1074.16	0.0111504
1083.8	0.0110863
1093.44	0.0108331
1103.08	0.010369
1112.72	0.00935025
1122.37	0.00919777
1132.01	0.00940405
1141.65	0.00911036
1151.3	0.00576412
1160.94	0.00538458
1170.58	0.00484732
1180.22	0.00411422
1189.86	0.0035377
1199.51	0.00281738
1209.15	0.00234919
1218.79	0.00182812
1228.43	0.00140508
1238.08	0.00133369
1247.72	0.00114083
1257.36	0.0011914
1267	0.00133897
1276.64	0.00136405
1286.29	0.0014331
1295.93	0.00125824
1305.57	0.00151249
1315.21	0.00171179
1324.86	0.00156066
1334.5	0.00175219
1344.14	0.00158508
1353.78	0.0015996
1363.43	0.00207372
1373.07	0.00255269
1382.71	0.00296801
1392.35	0.00357284
1401.99	0.0039237
1411.64	0.00420033
1421.28	0.00470227
1430.92	0.00433944
1440.57	0.00447852
1450.21	0.00430977
1459.85	0.00448796
1469.49	0.00456983
1479.13	0.0043909
1488.78	0.00442236
1498.42	0.00462188
1508.06	0.00484797
1517.7	0.00497249
1527.35	0.00483487
1536.99	0.00519625
1546.63	0.00521795
1556.27	0.00562481
1565.91	0.00564783
1575.56	0.00569461
1585.2	0.00543198
1594.84	0.00539355
1604.48	0.00521064
1614.13	0.00567478
1623.77	0.00564598
1633.41	0.00573603
1643.05	0.00510458
1652.7	0.00600561
1662.34	0.00467243
1671.98	0.00401959
1681.62	0.00431092
1691.27	0.00356163
1700.91	0.00404929
1710.55	0.00300174
1720.19	0.00274991
1729.84	0.00272304
1739.48	0.00242263
1749.12	0.00153122
1758.76	0.00190575
1768.4	0.0018241
1778.05	0.00168701
1787.69	0.00235389
1797.33	0.00182857
1806.97	0.00183772
1816.62	0.00162806
1826.26	0.00205059
1835.9	0.00098753
1845.54	0.00194805
1855.18	0.00122295
1864.83	0.00148474
1874.47	0.00142465
1884.11	0.000912523
1893.75	0.00170681
1903.4	0.00194235
1913.04	0.00274181
1922.68	0.00298934
1932.32	0.00276804
1941.97	0.00304412
1951.61	0.00236232
1961.25	0.00109927
1970.89	0.00267228
1980.54	0.00384194
1990.18	0.00200414
1999.82	0.00261599
2009.46	0.00113049
2019.11	0.00255781
2028.75	0.00237103
2038.39	0.00398321
2048.03	0.00281417
2057.67	0.00315961
2067.32	0.00332972
2076.96	0.00370796
2086.6	0.00149827
2096.24	0.00331726
2105.89	0.00322937
2115.53	0.0040843
2125.17	0.00328862
2134.81	0.000342703
2144.45	0.00177215
2154.1	-0.00210253
2163.74	0.000101237
2173.38	0.000190637
2183.02	0.000516956
2192.67	0.00202718
2202.31	0.0013966
2211.95	0.000668352
2221.59	0.00109624
2231.24	0.000471861
2240.88	0.00102823
2250.52	0.0021291
2260.16	0.00321204
2269.8	0.00196548
2279.45	0.00308662
2289.09	0.00359747
2298.73	0.00308897
2308.38	0.00260819
2318.02	0.00325065
2327.66	0.00370948
2337.3	0.00416201
2346.94	0.00325665
2356.59	0.0047669
2366.23	0.0043776
2375.87	0.0026034
2385.51	0.00311529
2395.16	0.00319021
2404.8	0.00331503
2414.44	0.00382313
2424.08	0.0029563
2433.72	0.00255087
2443.37	0.00384569
2453.01	0.00265509
2462.65	0.00262928
2472.29	0.0020008
2481.94	0.00217035
2491.58	0.00184621
2501.22	0.00315351
2510.86	0.00166501
2520.51	0.0024765
2530.15	0.00271614
2539.79	0.000957493
2549.43	0.00308079
2559.07	0.00230196
2568.72	0.0032976
2578.36	0.00229636
2588	0.00260728
2597.64	0.00290716
2607.29	0.00377643
2616.93	0.00352387
2626.57	0.00272116
2636.21	0.00355474
2645.86	0.00313357
2655.5	0.00368516
2665.14	0.00386537
2674.78	0.00303925
2684.43	0.00389048
2694.07	0.00357195
2703.71	0.0038983
2713.35	0.00414874
2722.99	0.00461401
2732.64	0.00507365
2742.28	0.00429993
2751.92	0.00446523
2761.56	0.00362161
2771.21	0.00406471
2780.85	0.0052719
2790.49	0.00478352
2800.13	0.00426867
2809.78	0.00458742
2819.42	0.0051616
2829.06	0.00388841
2838.7	0.0042144
2848.34	0.00445601
2857.99	0.00535727
2867.63	0.00493073
2877.27	0.00605464
2886.91	0.00546154
2896.56	0.00553126
2906.2	0.00506511
2915.84	0.00651758
2925.48	0.0062346
2935.13	0.00735382
2944.77	0.00573329
2954.41	0.00648828
2964.05	0.00687029
2973.7	0.00708958
2983.34	0.00742162
2992.98	0.00766695
3002.62	0.00725819
3012.26	0.00745514
3021.91	0.0081978
3031.55	0.00909472
3041.19	0.00735
3050.83	0.00817222
3060.48	0.0107753
3070.12	0.00998503
3079.76	0.010001
3089.4	0.0101686
3099.05	0.010302
3108.69	0.0112594
3118.33	0.0114701
3127.97	0.0117796
3137.61	0.0119884
3147.26	0.0110763
3156.9	0.0139123
3166.54	0.0147048
3176.18	0.0161701
3185.83	0.0143006
3195.47	0.0184836
3205.11	0.0160026
3214.75	0.0177489
3224.4	0.0177604
3234.04	0.0192952
3243.68	0.0219111
3253.32	0.0240731
3262.97	0.0239078
3272.61	0.0252246
3282.25	0.0261078
3291.89	0.0271478
3301.53	0.0307749
3311.18	0.0342561
3320.82	0.0362523
3330.46	0.0428842
3340.1	0.0464573
3349.75	0.048112
3359.39	0.0554895
3369.03	0.0604428
3378.67	0.0650798
3388.32	0.0731008
3397.96	0.0830495
3407.6	0.0931284
3417.24	0.110022
3426.89	0.12769
3436.53	0.140194
3446.17	0.120288
3455.81	0.091456
3465.45	0.0621987
3475.1	0.0505865
3484.74	0.0483802
3494.38	0.0477691
3504.02	0.0516424
3513.67	0.0615321
3523.31	0.074206
3532.95	0.0970653
3542.59	0.134934
3552.24	0.150005
3561.88	0.119684
3571.52	0.122476
3581.16	0.0701218
3590.8	0.0372283
3600.45	0.02576
3610.09	0.0174655
3619.73	0.00847375
3629.37	0.00789022
3639.02	0.00323291
3648.66	0.00261167
3658.3	-0.000153813
3667.94	-0.00102129
3677.59	0.00155987
3687.23	-0.000689517
3696.87	-0.00462818
3706.51	-0.00124532
3716.16	-0.00285793
3725.8	-0.00316921
3735.44	-0.00065387
3745.08	-0.00344158
3754.72	-0.00413646
3764.37	-0.00268769
3774.01	-0.00326987
3783.65	-0.00426398
3793.29	-0.00291487
3802.94	-0.00163388
3812.58	-0.0065157
3822.22	-0.00200131
3831.86	-0.00371276
3841.51	-0.00184779
3851.15	-0.00278685
3860.79	0.00179432
3870.43	-0.000995769
3880.07	-0.00578079
3889.72	-0.00496689
3899.36	-0.00186955
3909	-0.002221
3918.64	-0.00116284
3928.29	-0.00162271
3937.93	-0.00189052
3947.57	-0.00264298
3957.21	-0.002193
3966.86	-0.00240246
3976.5	-0.001717
3986.14	-0.00266194
3995.78	-0.00344365
