Measurement: Infrared, Infrared Data Processed
Mineral: Proto-ferro-anthophyllite
Rruff sample: R060053
Ideal chemistry: Fe^2+^_7_Si_8_O_22_(OH)_2_
Locality: Nyppio mine, near Utsonomiya, Japan
Source: Marcus Origlieri
Description: Sprays of green prismatic crystals
Measured chemistry: (Fe^2+^_0.51_Mn_0.27_Mg_0.22_)_7_Si_8_O_22_(OH)_2_
x	intensity
399.193	0.242745
408.835	0.258406
418.477	0.275829
428.12	0.270314
437.762	0.234825
447.404	0.278438
457.047	0.324828
466.689	0.340639
476.331	0.312304
485.974	0.284361
495.616	0.254215
505.258	0.211739
514.901	0.170918
524.543	0.133768
534.185	0.103679
543.828	0.0891091
553.47	0.0733453
563.112	0.0578494
572.755	0.0434986
582.397	0.0361738
592.039	0.0345845
601.682	0.0381249
611.324	0.0480615
620.966	0.0738588
630.609	0.107603
640.251	0.0913273
649.893	0.0695102
659.536	0.0520877
669.178	0.0491
678.82	0.0583087
688.463	0.0750206
698.105	0.0837454
707.747	0.0595815
717.39	0.0481923
727.032	0.0480526
736.674	0.0377338
746.317	0.0417196
755.959	0.0625169
765.601	0.103165
775.244	0.0599456
784.886	0.0450262
794.528	0.045062
804.171	0.0482156
813.813	0.0519592
823.455	0.0598013
833.098	0.0713703
842.74	0.0882566
852.382	0.11274
862.025	0.15006
871.667	0.196473
881.309	0.249572
890.952	0.274482
900.594	0.262246
910.236	0.254119
919.879	0.303684
929.521	0.388152
939.163	0.474997
948.806	0.531562
958.448	0.537707
968.09	0.484576
977.733	0.428369
987.375	0.36643
997.017	0.339248
1006.66	0.311455
1016.3	0.265417
1025.94	0.226886
1035.59	0.195392
1045.23	0.166918
1054.87	0.138158
1064.51	0.13791
1074.16	0.186834
1083.8	0.209282
1093.44	0.158905
1103.08	0.107094
1112.72	0.0763257
1122.37	0.0945462
1132.01	0.0978967
1141.65	0.0631479
1151.3	0.0339233
1160.94	0.0210946
1170.58	0.0165383
1180.22	0.0138867
1189.86	0.0117937
1199.51	0.00974961
1209.15	0.00772653
1218.79	0.00674229
1228.43	0.00533227
1238.08	0.0049924
1247.72	0.00439389
1257.36	0.00403927
1267	0.00401163
1276.64	0.00415454
1286.29	0.00431784
1295.93	0.00419268
1305.57	0.0040121
1315.21	0.00400434
1324.86	0.00399104
1334.5	0.0036745
1344.14	0.00407618
1353.78	0.00417779
1363.43	0.00441455
1373.07	0.00469999
1382.71	0.00506921
1392.35	0.00549601
1401.99	0.00603625
1411.64	0.00668055
1421.28	0.00684655
1430.92	0.0075033
1440.57	0.00798968
1450.21	0.00776732
1459.85	0.00687512
1469.49	0.00692766
1479.13	0.00622667
1488.78	0.00520231
1498.42	0.00429775
1508.06	0.00278459
1517.7	0.0032273
1527.35	0.00351897
1536.99	0.00312933
1546.63	0.003739
1556.27	0.00280412
1565.91	0.00444423
1575.56	0.0032591
1585.2	0.00543431
1594.84	0.00613459
1604.48	0.00653977
1614.13	0.00661627
1623.77	0.00656705
1633.41	0.00674837
1643.05	0.00697493
1652.7	0.00300414
1662.34	0.00562814
1671.98	0.00509213
1681.62	0.00474346
1691.27	0.00539181
1700.91	0.0025666
1710.55	0.00467447
1720.19	0.00392444
1729.84	0.0036216
1739.48	0.00261572
1749.12	0.00235094
1758.76	0.00288275
1768.4	0.00281928
1778.05	0.00331376
1787.69	0.00311528
1797.33	0.0032106
1806.97	0.00276125
1816.62	0.00257946
1826.26	0.00256874
1835.9	0.00235013
1845.54	0.00155503
1855.18	0.00261289
1864.83	0.00169573
1874.47	0.00144643
1884.11	0.000602342
1893.75	0.000378958
1903.4	-0.000321706
1913.04	-0.00104174
1922.68	-0.00165434
1932.32	-0.00158372
1941.97	-0.00362525
1951.61	-0.00367184
1961.25	-0.00498623
1970.89	-0.00624734
1980.54	-0.0035914
1990.18	-0.00486242
1999.82	-0.00514008
2009.46	-0.00380601
2019.11	-0.00449798
2028.75	-0.00577698
2038.39	-0.00410481
2048.03	-0.00287923
2057.67	-0.00215567
2067.32	-0.0018775
2076.96	-0.000978199
2086.6	0.00113934
2096.24	-0.000606921
2105.89	0.000476628
2115.53	-0.000283494
2125.17	-0.00155642
2134.81	-0.00527713
2144.45	-0.00546896
2154.1	-0.00840071
2163.74	-0.00320117
2173.38	-0.00352758
2183.02	-0.00395339
2192.67	-0.00282907
2202.31	-0.00116464
2211.95	0.000272387
2221.59	-0.0005002
2231.24	0.00214886
2240.88	0.00122232
2250.52	5.84637e-05
2260.16	0.00157917
2269.8	0.00012049
2279.45	0.00284489
2289.09	0.00390703
2298.73	0.00364947
2308.38	0.00370155
2318.02	0.00501526
2327.66	0.00405424
2337.3	0.00247969
2346.94	0.00387743
2356.59	0.00382557
2366.23	0.00241018
2375.87	0.0030794
2385.51	0.00376019
2395.16	0.00356306
2404.8	0.00406836
2414.44	0.00377287
2424.08	0.00552472
2433.72	0.00443647
2443.37	0.00509081
2453.01	0.00437376
2462.65	0.00414224
2472.29	0.00378065
2481.94	0.00433286
2491.58	0.00403866
2501.22	0.00406984
2510.86	0.00471377
2520.51	0.00589158
2530.15	0.00445987
2539.79	0.00539098
2549.43	0.0046177
2559.07	0.00532286
2568.72	0.00577684
2578.36	0.00535498
2588	0.0057254
2597.64	0.00591639
2607.29	0.00690013
2616.93	0.00653
2626.57	0.00629902
2636.21	0.0054295
2645.86	0.00616668
2655.5	0.00631646
2665.14	0.00586028
2674.78	0.00600647
2684.43	0.00558662
2694.07	0.005371
2703.71	0.00595698
2713.35	0.00667593
2722.99	0.00613713
2732.64	0.00643649
2742.28	0.00657697
2751.92	0.00564106
2761.56	0.00587101
2771.21	0.00619226
2780.85	0.00598118
2790.49	0.00796745
2800.13	0.0073346
2809.78	0.00777776
2819.42	0.00722159
2829.06	0.00831783
2838.7	0.00826323
2848.34	0.00926137
2857.99	0.00957192
2867.63	0.00988202
2877.27	0.00907777
2886.91	0.00971835
2896.56	0.00949481
2906.2	0.00947335
2915.84	0.0105034
2925.48	0.0123277
2935.13	0.0118798
2944.77	0.0112719
2954.41	0.0112283
2964.05	0.010396
2973.7	0.0110138
2983.34	0.00970159
2992.98	0.0110107
3002.62	0.010355
3012.26	0.0103314
3021.91	0.0114735
3031.55	0.0115852
3041.19	0.0125826
3050.83	0.0118037
3060.48	0.0108247
3070.12	0.0125975
3079.76	0.0118965
3089.4	0.0124671
3099.05	0.0128965
3108.69	0.0133609
3118.33	0.012872
3127.97	0.013736
3137.61	0.014312
3147.26	0.014292
3156.9	0.0145604
3166.54	0.015408
3176.18	0.0138759
3185.83	0.0136953
3195.47	0.0155094
3205.11	0.0153031
3214.75	0.0148561
3224.4	0.016502
3234.04	0.0154469
3243.68	0.0152923
3253.32	0.0161689
3262.97	0.0167819
3272.61	0.0166772
3282.25	0.0156942
3291.89	0.01673
3301.53	0.0155622
3311.18	0.0159217
3320.82	0.0171301
3330.46	0.0182002
3340.1	0.0161094
3349.75	0.019119
3359.39	0.0182123
3369.03	0.0184312
3378.67	0.0165466
3388.32	0.0187936
3397.96	0.0170404
3407.6	0.0177845
3417.24	0.0167038
3426.89	0.016644
3436.53	0.0168013
3446.17	0.0182729
3455.81	0.0161858
3465.45	0.0167529
3475.1	0.0167514
3484.74	0.0177437
3494.38	0.0155
3504.02	0.0161391
3513.67	0.0176444
3523.31	0.0167585
3532.95	0.0170231
3542.59	0.0165003
3552.24	0.0141014
3561.88	0.0169725
3571.52	0.0146938
3581.16	0.0147004
3590.8	0.0161657
3600.45	0.0112565
3610.09	0.0135559
3619.73	0.0360442
3629.37	0.00839174
3639.02	0.0310387
3648.66	0.00746747
3658.3	0.0120543
3667.94	0.00868633
3677.59	0.00520552
3687.23	0.00817059
3696.87	0.00961867
3706.51	0.00754269
3716.16	0.00782163
3725.8	0.00709928
3735.44	0.00367134
3745.08	0.00186663
3754.72	0.00752118
3764.37	0.00871528
3774.01	0.0114019
3783.65	0.0100407
3793.29	0.00917604
3802.94	0.00770207
3812.58	0.00944081
3822.22	0.00670701
3831.86	0.0103391
3841.51	0.00789438
3851.15	0.00498103
3860.79	0.00802399
3870.43	0.00518889
3880.07	0.00760257
3889.72	0.00702111
3899.36	0.00964024
3909	0.00913426
3918.64	0.0119546
3928.29	0.009119
3937.93	0.00876651
3947.57	0.0100403
3957.21	0.0106439
3966.86	0.00706704
3976.5	0.00916521
3986.14	0.0103401
3995.78	0.0088293
