Measurement: Infrared, Infrared Data Processed
Mineral: Pyrargyrite
Rruff sample: R050290
Ideal chemistry: Ag^1+^_3_Sb^3+^S^2-^_3_
Locality: San Guillermo Vein, Cueva Santa area, San Luis Shaft, Proa√±o mine, Fresnillo, Zacatecas, Mexico
Source: Dave Bunk Minerals
Description: Prismatic single crystal, deep red color on freshly broken surface
Measured chemistry: Ag_3.00_Sb_1.00_S_3.00_
x	intensity
399.193	0.13923
408.835	0.14774
418.477	0.155952
428.12	0.162766
437.762	0.16814
447.404	0.174522
457.047	0.17743
466.689	0.181499
476.331	0.184975
485.974	0.191054
495.616	0.195701
505.258	0.202098
514.901	0.205964
524.543	0.209725
534.185	0.213047
543.828	0.217603
553.47	0.220925
563.112	0.223392
572.755	0.226562
582.397	0.230408
592.039	0.23431
601.682	0.238512
611.324	0.241897
620.966	0.244309
630.609	0.248113
640.251	0.250825
649.893	0.25259
659.536	0.254567
669.178	0.257993
678.82	0.259748
688.463	0.262455
698.105	0.265754
707.747	0.267966
717.39	0.270663
727.032	0.273648
736.674	0.276338
746.317	0.280106
755.959	0.280756
765.601	0.282557
775.244	0.284426
784.886	0.287623
794.528	0.289788
804.171	0.292368
813.813	0.294915
823.455	0.297366
833.098	0.299225
842.74	0.301465
852.382	0.303715
862.025	0.306859
871.667	0.31011
881.309	0.317709
890.952	0.315123
900.594	0.311877
910.236	0.3149
919.879	0.317725
929.521	0.320653
939.163	0.323335
948.806	0.325509
958.448	0.327985
968.09	0.330293
977.733	0.332657
987.375	0.335505
997.017	0.338043
1006.66	0.340394
1016.3	0.341946
1025.94	0.343476
1035.59	0.345078
1045.23	0.346222
1054.87	0.347562
1064.51	0.349459
1074.16	0.351193
1083.8	0.352986
1093.44	0.354958
1103.08	0.35724
1112.72	0.359362
1122.37	0.361479
1132.01	0.364272
1141.65	0.36804
1151.3	0.370547
1160.94	0.371178
1170.58	0.372275
1180.22	0.37395
1189.86	0.376525
1199.51	0.378446
1209.15	0.38031
1218.79	0.381822
1228.43	0.383451
1238.08	0.384916
1247.72	0.386506
1257.36	0.387434
1267	0.388946
1276.64	0.390477
1286.29	0.392397
1295.93	0.394571
1305.57	0.396422
1315.21	0.397962
1324.86	0.400239
1334.5	0.402091
1344.14	0.404549
1353.78	0.407051
1363.43	0.409851
1373.07	0.412108
1382.71	0.414425
1392.35	0.417075
1401.99	0.420465
1411.64	0.424285
1421.28	0.429039
1430.92	0.434592
1440.57	0.436854
1450.21	0.436649
1459.85	0.436524
1469.49	0.435399
1479.13	0.434838
1488.78	0.434786
1498.42	0.434609
1508.06	0.435261
1517.7	0.434401
1527.35	0.434348
1536.99	0.435108
1546.63	0.435702
1556.27	0.437167
1565.91	0.438118
1575.56	0.440032
1585.2	0.440692
1594.84	0.442851
1604.48	0.444538
1614.13	0.446802
1623.77	0.448672
1633.41	0.450441
1643.05	0.451494
1652.7	0.454526
1662.34	0.454961
1671.98	0.45595
1681.62	0.457547
1691.27	0.458638
1700.91	0.461432
1710.55	0.462136
1720.19	0.465043
1729.84	0.467473
1739.48	0.467881
1749.12	0.467069
1758.76	0.46794
1768.4	0.469446
1778.05	0.470224
1787.69	0.471502
1797.33	0.472496
1806.97	0.473163
1816.62	0.474168
1826.26	0.475243
1835.9	0.475763
1845.54	0.476882
1855.18	0.477662
1864.83	0.47895
1874.47	0.479637
1884.11	0.480101
1893.75	0.482572
1903.4	0.484066
1913.04	0.485115
1922.68	0.486344
1932.32	0.487444
1941.97	0.488263
1951.61	0.488787
1961.25	0.492675
1970.89	0.493138
1980.54	0.493724
1990.18	0.493589
1999.82	0.500014
2009.46	0.498858
2019.11	0.500591
2028.75	0.503715
2038.39	0.500048
2048.03	0.502325
2057.67	0.508091
2067.32	0.507
2076.96	0.508614
2086.6	0.510161
2096.24	0.5125
2105.89	0.514587
2115.53	0.514916
2125.17	0.517639
2134.81	0.517696
2144.45	0.517543
2154.1	0.521851
2163.74	0.519943
2173.38	0.523397
2183.02	0.523241
2192.67	0.521821
2202.31	0.527117
2211.95	0.526469
2221.59	0.529181
2231.24	0.529654
2240.88	0.532427
2250.52	0.5343
2260.16	0.533005
2269.8	0.536703
2279.45	0.538726
2289.09	0.539036
2298.73	0.54034
2308.38	0.541865
2318.02	0.543833
2327.66	0.546683
2337.3	0.548002
2346.94	0.548889
2356.59	0.549641
2366.23	0.551449
2375.87	0.551627
2385.51	0.552744
2395.16	0.553408
2404.8	0.552639
2414.44	0.55534
2424.08	0.556137
2433.72	0.556258
2443.37	0.55723
2453.01	0.559671
2462.65	0.560191
2472.29	0.562224
2481.94	0.563
2491.58	0.564159
2501.22	0.565028
2510.86	0.566325
2520.51	0.56798
2530.15	0.569937
2539.79	0.569997
2549.43	0.570685
2559.07	0.573212
2568.72	0.574877
2578.36	0.575793
2588	0.577872
2597.64	0.580223
2607.29	0.582056
2616.93	0.583765
2626.57	0.585645
2636.21	0.587746
2645.86	0.590014
2655.5	0.591198
2665.14	0.593375
2674.78	0.594009
2684.43	0.595301
2694.07	0.59652
2703.71	0.598023
2713.35	0.599154
2722.99	0.600083
2732.64	0.601409
2742.28	0.602239
2751.92	0.603554
2761.56	0.604529
2771.21	0.605649
2780.85	0.606686
2790.49	0.608173
2800.13	0.60902
2809.78	0.610375
2819.42	0.611647
2829.06	0.613419
2838.7	0.613997
2848.34	0.615093
2857.99	0.616576
2867.63	0.617748
2877.27	0.619486
2886.91	0.620546
2896.56	0.621681
2906.2	0.623117
2915.84	0.622659
2925.48	0.624237
2935.13	0.625712
2944.77	0.625824
2954.41	0.628388
2964.05	0.628069
2973.7	0.628147
2983.34	0.628681
2992.98	0.629641
3002.62	0.630533
3012.26	0.632788
3021.91	0.632734
3031.55	0.63483
3041.19	0.635933
3050.83	0.636745
3060.48	0.638153
3070.12	0.639267
3079.76	0.640735
3089.4	0.641837
3099.05	0.643174
3108.69	0.644161
3118.33	0.645166
3127.97	0.646229
3137.61	0.647469
3147.26	0.648701
3156.9	0.650389
3166.54	0.65115
3176.18	0.652722
3185.83	0.653872
3195.47	0.654603
3205.11	0.656187
3214.75	0.657086
3224.4	0.657581
3234.04	0.660087
3243.68	0.660405
3253.32	0.662178
3262.97	0.662974
3272.61	0.66442
3282.25	0.665709
3291.89	0.666701
3301.53	0.668304
3311.18	0.66886
3320.82	0.669738
3330.46	0.671743
3340.1	0.672849
3349.75	0.673683
3359.39	0.674802
3369.03	0.675076
3378.67	0.67612
3388.32	0.677677
3397.96	0.678658
3407.6	0.680593
3417.24	0.681583
3426.89	0.682729
3436.53	0.684223
3446.17	0.685425
3455.81	0.684772
3465.45	0.685982
3475.1	0.686331
3484.74	0.688141
3494.38	0.688839
3504.02	0.690455
3513.67	0.691637
3523.31	0.691373
3532.95	0.693194
3542.59	0.693781
3552.24	0.694519
3561.88	0.695213
3571.52	0.696539
3581.16	0.696278
3590.8	0.696902
3600.45	0.698898
3610.09	0.700069
3619.73	0.700962
3629.37	0.701814
3639.02	0.702689
3648.66	0.704544
3658.3	0.705399
3667.94	0.707017
3677.59	0.706971
3687.23	0.709362
3696.87	0.709154
3706.51	0.711367
3716.16	0.712621
3725.8	0.714396
3735.44	0.717359
3745.08	0.717344
3754.72	0.716876
3764.37	0.717444
3774.01	0.719099
3783.65	0.7197
3793.29	0.719499
3802.94	0.722126
3812.58	0.722674
3822.22	0.724442
3831.86	0.726483
3841.51	0.725521
3851.15	0.728595
3860.79	0.728917
3870.43	0.73058
3880.07	0.729532
3889.72	0.730982
3899.36	0.732911
3909	0.73273
3918.64	0.734408
3928.29	0.734313
3937.93	0.735584
3947.57	0.737161
3957.21	0.737561
3966.86	0.739348
3976.5	0.74043
3986.14	0.740635
3995.78	0.741955
