Measurement: Infrared, Infrared Data Processed
Mineral: Pyrite
Rruff sample: R050070
Ideal chemistry: Fe^2+^(S_2_)^2-^
Locality: Mina San Jose de Huanzala, Minero de Huallanca District, Department de Huanuco, Peru
Source: Rock Currier
Description: Brass-yellow metallic cube
Measured chemistry: Fe_1.00_S_2.00_
x	intensity
399.193	0.243072
408.835	0.276028
418.477	0.240721
428.12	0.146272
437.762	0.0395301
447.404	0.0839645
457.047	0.164899
466.689	0.199105
476.331	0.214613
485.974	0.225566
495.616	0.236768
505.258	0.247286
514.901	0.258804
524.543	0.264545
534.185	0.265888
543.828	0.265751
553.47	0.264219
563.112	0.261458
572.755	0.261334
582.397	0.264172
592.039	0.262429
601.682	0.268121
611.324	0.256851
620.966	0.270085
630.609	0.255342
640.251	0.260749
649.893	0.270129
659.536	0.278214
669.178	0.265841
678.82	0.253874
688.463	0.257329
698.105	0.260303
707.747	0.263446
717.39	0.266025
727.032	0.268156
736.674	0.270848
746.317	0.272937
755.959	0.275332
765.601	0.277406
775.244	0.28057
784.886	0.285417
794.528	0.291816
804.171	0.299492
813.813	0.305051
823.455	0.301693
833.098	0.292312
842.74	0.282724
852.382	0.276648
862.025	0.275917
871.667	0.278232
881.309	0.282403
890.952	0.286128
900.594	0.289377
910.236	0.292438
919.879	0.296201
929.521	0.300463
939.163	0.304419
948.806	0.308748
958.448	0.313659
968.09	0.318256
977.733	0.32387
987.375	0.330654
997.017	0.33973
1006.66	0.352653
1016.3	0.368073
1025.94	0.352289
1035.59	0.364648
1045.23	0.35441
1054.87	0.352935
1064.51	0.359866
1074.16	0.373439
1083.8	0.370499
1093.44	0.362297
1103.08	0.359089
1112.72	0.361752
1122.37	0.360493
1132.01	0.356542
1141.65	0.350608
1151.3	0.34503
1160.94	0.333534
1170.58	0.316189
1180.22	0.295343
1189.86	0.274679
1199.51	0.255682
1209.15	0.237322
1218.79	0.226119
1228.43	0.22277
1238.08	0.2254
1247.72	0.230353
1257.36	0.234595
1267	0.238126
1276.64	0.242029
1286.29	0.245698
1295.93	0.249039
1305.57	0.252034
1315.21	0.254834
1324.86	0.258075
1334.5	0.260843
1344.14	0.263173
1353.78	0.265704
1363.43	0.268288
1373.07	0.270047
1382.71	0.272303
1392.35	0.274103
1401.99	0.276495
1411.64	0.2782
1421.28	0.279788
1430.92	0.281703
1440.57	0.283902
1450.21	0.285963
1459.85	0.28817
1469.49	0.28981
1479.13	0.291777
1488.78	0.293119
1498.42	0.292877
1508.06	0.291629
1517.7	0.291656
1527.35	0.29237
1536.99	0.293293
1546.63	0.294872
1556.27	0.295841
1565.91	0.297122
1575.56	0.298684
1585.2	0.300187
1594.84	0.302444
1604.48	0.304096
1614.13	0.306516
1623.77	0.307808
1633.41	0.309499
1643.05	0.310305
1652.7	0.310232
1662.34	0.309435
1671.98	0.308505
1681.62	0.308235
1691.27	0.308179
1700.91	0.30728
1710.55	0.307194
1720.19	0.306978
1729.84	0.306714
1739.48	0.305309
1749.12	0.304924
1758.76	0.305111
1768.4	0.304449
1778.05	0.304556
1787.69	0.304395
1797.33	0.30485
1806.97	0.304551
1816.62	0.304374
1826.26	0.305205
1835.9	0.305081
1845.54	0.305766
1855.18	0.306071
1864.83	0.305459
1874.47	0.306575
1884.11	0.307225
1893.75	0.30746
1903.4	0.305793
1913.04	0.307185
1922.68	0.306221
1932.32	0.305405
1941.97	0.303662
1951.61	0.300757
1961.25	0.298385
1970.89	0.295347
1980.54	0.300241
1990.18	0.301523
1999.82	0.302958
2009.46	0.301803
2019.11	0.30204
2028.75	0.299066
2038.39	0.302857
2048.03	0.306807
2057.67	0.311361
2067.32	0.313027
2076.96	0.314483
2086.6	0.31672
2096.24	0.315406
2105.89	0.317778
2115.53	0.319587
2125.17	0.317704
2134.81	0.314398
2144.45	0.311144
2154.1	0.305434
2163.74	0.308116
2173.38	0.307366
2183.02	0.309236
2192.67	0.312714
2202.31	0.313141
2211.95	0.318174
2221.59	0.318914
2231.24	0.322145
2240.88	0.323822
2250.52	0.322906
2260.16	0.325771
2269.8	0.326055
2279.45	0.329875
2289.09	0.332752
2298.73	0.334089
2308.38	0.335669
2318.02	0.337569
2327.66	0.338495
2337.3	0.339258
2346.94	0.339238
2356.59	0.340673
2366.23	0.340163
2375.87	0.340693
2385.51	0.340377
2395.16	0.34035
2404.8	0.341812
2414.44	0.341347
2424.08	0.340846
2433.72	0.34278
2443.37	0.344296
2453.01	0.344352
2462.65	0.344656
2472.29	0.344959
2481.94	0.346347
2491.58	0.346124
2501.22	0.346457
2510.86	0.34781
2520.51	0.347198
2530.15	0.348641
2539.79	0.350064
2549.43	0.351847
2559.07	0.351379
2568.72	0.352006
2578.36	0.351558
2588	0.353702
2597.64	0.354168
2607.29	0.355312
2616.93	0.356937
2626.57	0.359073
2636.21	0.360266
2645.86	0.361118
2655.5	0.362942
2665.14	0.363137
2674.78	0.36311
2684.43	0.364871
2694.07	0.365393
2703.71	0.365829
2713.35	0.366943
2722.99	0.367639
2732.64	0.3686
2742.28	0.368927
2751.92	0.370628
2761.56	0.370397
2771.21	0.371478
2780.85	0.372758
2790.49	0.37293
2800.13	0.374116
2809.78	0.374291
2819.42	0.37505
2829.06	0.376565
2838.7	0.377132
2848.34	0.377814
2857.99	0.377703
2867.63	0.378178
2877.27	0.380276
2886.91	0.381142
2896.56	0.381176
2906.2	0.380978
2915.84	0.381366
2925.48	0.380298
2935.13	0.382236
2944.77	0.383873
2954.41	0.384702
2964.05	0.38537
2973.7	0.386504
2983.34	0.387553
2992.98	0.387608
3002.62	0.388993
3012.26	0.388688
3021.91	0.390005
3031.55	0.39275
3041.19	0.392648
3050.83	0.392449
3060.48	0.392771
3070.12	0.393947
3079.76	0.393772
3089.4	0.394793
3099.05	0.395349
3108.69	0.395367
3118.33	0.396274
3127.97	0.397833
3137.61	0.398804
3147.26	0.398
3156.9	0.398708
3166.54	0.399922
3176.18	0.399667
3185.83	0.399817
3195.47	0.401838
3205.11	0.401055
3214.75	0.404178
3224.4	0.403343
3234.04	0.400969
3243.68	0.402496
3253.32	0.400641
3262.97	0.398554
3272.61	0.396151
3282.25	0.394449
3291.89	0.393811
3301.53	0.391945
3311.18	0.389716
3320.82	0.389727
3330.46	0.386786
3340.1	0.385716
3349.75	0.383151
3359.39	0.381516
3369.03	0.379441
3378.67	0.377805
3388.32	0.373673
3397.96	0.373193
3407.6	0.370738
3417.24	0.368111
3426.89	0.366159
3436.53	0.363551
3446.17	0.361486
3455.81	0.360596
3465.45	0.359022
3475.1	0.356932
3484.74	0.355966
3494.38	0.356819
3504.02	0.35461
3513.67	0.354866
3523.31	0.353897
3532.95	0.352994
3542.59	0.353534
3552.24	0.352895
3561.88	0.352517
3571.52	0.353868
3581.16	0.35118
3590.8	0.354326
3600.45	0.352577
3610.09	0.354926
3619.73	0.354811
3629.37	0.353487
3639.02	0.355725
3648.66	0.357403
3658.3	0.36059
3667.94	0.356693
3677.59	0.358272
3687.23	0.360202
3696.87	0.359115
3706.51	0.361633
3716.16	0.362239
3725.8	0.36484
3735.44	0.36448
3745.08	0.363185
3754.72	0.364977
3764.37	0.365109
3774.01	0.366396
3783.65	0.368863
3793.29	0.368527
3802.94	0.367907
3812.58	0.367767
3822.22	0.369038
3831.86	0.370108
3841.51	0.371069
3851.15	0.372663
3860.79	0.372521
3870.43	0.371302
3880.07	0.372545
3889.72	0.372861
3899.36	0.373856
3909	0.374406
3918.64	0.374096
3928.29	0.375736
3937.93	0.374843
3947.57	0.376168
3957.21	0.377852
3966.86	0.375865
3976.5	0.376279
3986.14	0.377748
3995.78	0.378853
