Measurement: Infrared, Infrared Data Processed
Mineral: Pyrite
Rruff sample: R050190
Ideal chemistry: Fe^2+^(S_2_)^2-^
Locality: Huanzala mine, Huallanca District, Dos de Mayo Province, Huanuco Department, Peru
Source: Dave Bunk Minerals
Description: Brass yellow modified cubes with typical pyrite striations
Measured chemistry: Fe_1.00_S_2.00_
x	intensity
374.123	0.291505
383.765	0.252045
393.407	0.271712
403.05	0.261813
412.692	0.293682
422.334	0.222207
431.976	0.11745
441.619	0.0495217
451.261	0.136387
460.904	0.204833
470.546	0.237517
480.188	0.256522
489.83	0.271634
499.473	0.289315
509.115	0.306332
518.758	0.318955
528.4	0.316609
538.042	0.309502
547.684	0.303333
557.327	0.291404
566.969	0.282779
576.611	0.278283
586.254	0.282681
595.896	0.285927
605.538	0.288582
615.181	0.281863
624.823	0.29864
634.466	0.262763
644.108	0.278553
653.75	0.297495
663.393	0.315347
673.035	0.263771
682.677	0.266073
692.319	0.274486
701.962	0.28121
711.604	0.287402
721.246	0.292156
730.889	0.296814
740.531	0.302327
750.173	0.306788
759.816	0.311131
769.458	0.316521
779.101	0.324383
788.743	0.33506
798.385	0.34851
808.028	0.36372
817.67	0.367463
827.312	0.353325
836.955	0.330464
846.597	0.308977
856.239	0.295307
865.881	0.292217
875.524	0.294909
885.166	0.299797
894.808	0.306946
904.451	0.313038
914.093	0.318431
923.736	0.324387
933.378	0.331255
943.02	0.338135
952.663	0.345469
962.305	0.353774
971.947	0.362699
981.59	0.372519
991.232	0.385891
1000.87	0.401833
1010.52	0.430101
1020.16	0.41543
1029.8	0.414863
1039.44	0.422354
1049.09	0.415624
1058.73	0.425132
1068.37	0.448868
1078.01	0.465185
1087.65	0.442637
1097.3	0.42343
1106.94	0.421659
1116.58	0.434655
1126.22	0.432173
1135.87	0.423105
1145.51	0.411009
1155.15	0.395235
1164.79	0.366934
1174.44	0.337349
1184.08	0.309605
1193.72	0.281472
1203.36	0.249512
1213.01	0.222615
1222.65	0.208623
1232.29	0.203369
1241.93	0.207657
1251.58	0.214027
1261.22	0.219441
1270.86	0.225117
1280.5	0.230341
1290.14	0.23504
1299.79	0.239053
1309.43	0.243036
1319.07	0.24616
1328.71	0.24927
1338.36	0.25257
1348	0.255244
1357.64	0.258194
1367.28	0.260899
1376.92	0.263193
1386.57	0.265748
1396.21	0.268197
1405.85	0.270911
1415.49	0.273388
1425.14	0.275836
1434.78	0.278745
1444.42	0.281846
1454.06	0.285573
1463.71	0.289541
1473.35	0.293103
1482.99	0.295345
1492.63	0.295702
1502.28	0.292303
1511.92	0.289457
1521.56	0.288472
1531.2	0.28734
1540.85	0.288813
1550.49	0.289663
1560.13	0.292048
1569.77	0.293272
1579.41	0.295343
1589.06	0.29754
1598.7	0.299925
1608.34	0.302219
1617.98	0.305468
1627.63	0.307329
1637.27	0.309085
1646.91	0.309875
1656.55	0.308754
1666.19	0.307745
1675.84	0.307682
1685.48	0.308217
1695.12	0.308584
1704.77	0.308097
1714.41	0.307863
1724.05	0.307368
1733.69	0.308013
1743.33	0.30598
1752.98	0.304438
1762.62	0.304247
1772.26	0.304235
1781.9	0.303988
1791.55	0.303763
1801.19	0.303914
1810.83	0.304229
1820.47	0.304663
1830.12	0.305115
1839.76	0.305047
1849.4	0.305006
1859.04	0.305812
1868.68	0.306673
1878.33	0.30689
1887.97	0.306937
1897.61	0.308337
1907.25	0.308921
1916.9	0.31025
1926.54	0.309416
1936.18	0.311785
1945.82	0.311108
1955.46	0.311607
1965.11	0.313033
1974.75	0.313261
1984.39	0.314043
1994.04	0.316011
2003.68	0.31213
2013.32	0.31551
2022.96	0.314247
2032.6	0.317296
2042.25	0.316142
2051.89	0.318647
2061.53	0.316988
2071.17	0.319477
2080.82	0.319305
2090.46	0.320154
2100.1	0.321986
2109.74	0.320719
2119.39	0.321685
2129.03	0.321569
2138.67	0.32204
2148.31	0.323582
2157.95	0.320284
2167.6	0.324683
2177.24	0.320719
2186.88	0.32346
2196.52	0.325529
2206.17	0.323577
2215.81	0.322125
2225.45	0.323351
2235.09	0.32431
2244.74	0.323958
2254.38	0.3242
2264.02	0.323806
2273.66	0.325644
2283.3	0.326487
2292.95	0.327191
2302.59	0.328001
2312.23	0.327383
2321.87	0.327796
2331.52	0.327614
2341.16	0.328232
2350.8	0.328357
2360.44	0.327624
2370.09	0.32908
2379.73	0.32954
2389.37	0.330877
2399.01	0.33096
2408.66	0.331912
2418.3	0.332698
2427.94	0.33287
2437.58	0.333113
2447.22	0.333789
2456.87	0.334415
2466.51	0.335507
2476.15	0.33585
2485.79	0.336392
2495.44	0.336731
2505.08	0.336576
2514.72	0.337465
2524.36	0.337054
2534.01	0.337621
2543.65	0.338285
2553.29	0.338797
2562.93	0.339852
2572.57	0.33964
2582.22	0.340644
2591.86	0.341162
2601.5	0.341457
2611.14	0.342928
2620.79	0.343761
2630.43	0.344271
2640.07	0.345341
2649.71	0.345498
2659.36	0.346582
2669	0.347346
2678.64	0.347668
2688.28	0.34845
2697.93	0.348847
2707.57	0.35006
2717.21	0.35025
2726.85	0.351155
2736.49	0.351531
2746.14	0.352705
2755.78	0.35396
2765.42	0.354316
2775.06	0.354409
2784.71	0.355557
2794.35	0.355924
2803.99	0.356405
2813.63	0.357674
2823.28	0.358583
2832.92	0.359851
2842.56	0.360722
2852.2	0.361019
2861.84	0.362608
2871.49	0.363142
2881.13	0.363189
2890.77	0.364427
2900.41	0.366109
2910.06	0.366769
2919.7	0.367307
2929.34	0.368212
2938.98	0.368605
2948.62	0.370172
2958.27	0.370796
2967.91	0.370472
2977.55	0.370637
2987.2	0.371613
2996.84	0.372847
3006.48	0.373963
3016.12	0.375376
3025.76	0.377595
3035.41	0.378444
3045.05	0.380223
3054.69	0.381167
3064.33	0.382503
3073.98	0.383247
3083.62	0.385292
3093.26	0.386649
3102.9	0.387445
3112.55	0.389508
3122.19	0.391566
3131.83	0.393136
3141.47	0.395239
3151.11	0.396355
3160.76	0.399401
3170.4	0.400345
3180.04	0.40401
3189.68	0.405362
3199.33	0.407901
3208.97	0.410199
3218.61	0.412662
3228.25	0.413387
3237.9	0.413155
3247.54	0.412243
3257.18	0.408669
3266.82	0.404914
3276.47	0.400547
3286.11	0.397411
3295.75	0.393572
3305.39	0.390678
3315.03	0.388595
3324.68	0.384438
3334.32	0.381944
3343.96	0.379609
3353.6	0.374831
3363.25	0.371805
3372.89	0.368053
3382.53	0.364384
3392.17	0.36043
3401.82	0.356553
3411.46	0.35441
3421.1	0.350637
3430.74	0.345297
3440.39	0.342954
3450.03	0.338341
3459.67	0.334054
3469.31	0.331614
3478.95	0.328129
3488.6	0.325852
3498.24	0.323627
3507.88	0.321415
3517.52	0.320462
3527.17	0.319021
3536.81	0.318667
3546.45	0.318466
3556.09	0.317139
3565.74	0.316719
3575.38	0.317029
3585.02	0.316371
3594.66	0.314897
3604.3	0.316276
3613.95	0.316881
3623.59	0.316321
3633.23	0.315671
3642.87	0.316555
3652.52	0.317524
3662.16	0.318699
3671.8	0.318844
3681.44	0.318558
3691.09	0.318901
3700.73	0.320535
3710.37	0.321763
3720.01	0.32053
3729.66	0.321084
3739.3	0.32138
3748.94	0.324542
3758.58	0.322993
3768.22	0.324128
3777.87	0.324342
3787.51	0.324102
3797.15	0.32384
3806.79	0.324461
3816.44	0.326025
3826.08	0.326127
3835.72	0.325896
3845.36	0.32586
3855.01	0.32817
3864.65	0.325246
3874.29	0.326449
3883.93	0.327542
3893.57	0.325981
3903.22	0.327093
3912.86	0.326882
3922.5	0.327986
3932.14	0.330061
3941.79	0.328055
3951.43	0.328562
3961.07	0.328522
3970.71	0.33
3980.36	0.329876
3990	0.328984
3999.64	0.329875
