Measurement: Infrared, Infrared Data Processed
Mineral: Pyrolusite
Rruff sample: R050361
Ideal chemistry: Mn^4+^O_2_
Locality: Serra do Navio, Amapa, Brazil
Source: University of Arizona Mineral Museum
Description: Black prismatic crystals
Measured chemistry: Mn_1.00_O_2_
x	intensity
399.193	0.411247
408.835	0.425862
418.477	0.427533
428.12	0.429518
437.762	0.440329
447.404	0.462283
457.047	0.451295
466.689	0.467503
476.331	0.472801
485.974	0.482379
495.616	0.487403
505.258	0.48393
514.901	0.481457
524.543	0.465289
534.185	0.461498
543.828	0.458108
553.47	0.453301
563.112	0.447543
572.755	0.443549
582.397	0.439196
592.039	0.430977
601.682	0.414486
611.324	0.40017
620.966	0.390014
630.609	0.384893
640.251	0.383126
649.893	0.380179
659.536	0.37801
669.178	0.37806
678.82	0.379968
688.463	0.379447
698.105	0.376578
707.747	0.376703
717.39	0.377051
727.032	0.378703
736.674	0.380632
746.317	0.386188
755.959	0.391732
765.601	0.399424
775.244	0.406861
784.886	0.413099
794.528	0.420921
804.171	0.427449
813.813	0.437131
823.455	0.444042
833.098	0.452208
842.74	0.458604
852.382	0.465988
862.025	0.47169
871.667	0.477034
881.309	0.483043
890.952	0.488623
900.594	0.493948
910.236	0.499554
919.879	0.505302
929.521	0.510613
939.163	0.516806
948.806	0.521422
958.448	0.527573
968.09	0.53221
977.733	0.536277
987.375	0.54104
997.017	0.546138
1006.66	0.552015
1016.3	0.557041
1025.94	0.563608
1035.59	0.569336
1045.23	0.57413
1054.87	0.57568
1064.51	0.578386
1074.16	0.581532
1083.8	0.585845
1093.44	0.588746
1103.08	0.586689
1112.72	0.583998
1122.37	0.58402
1132.01	0.587137
1141.65	0.592016
1151.3	0.591911
1160.94	0.589935
1170.58	0.586831
1180.22	0.587228
1189.86	0.59019
1199.51	0.596219
1209.15	0.600852
1218.79	0.604516
1228.43	0.609556
1238.08	0.61377
1247.72	0.617286
1257.36	0.621795
1267	0.624417
1276.64	0.628539
1286.29	0.631257
1295.93	0.634738
1305.57	0.638034
1315.21	0.641173
1324.86	0.644695
1334.5	0.64873
1344.14	0.651754
1353.78	0.654606
1363.43	0.658223
1373.07	0.66182
1382.71	0.664718
1392.35	0.667879
1401.99	0.67106
1411.64	0.672937
1421.28	0.674946
1430.92	0.67713
1440.57	0.679575
1450.21	0.682888
1459.85	0.68371
1469.49	0.684798
1479.13	0.688853
1488.78	0.692557
1498.42	0.696987
1508.06	0.70153
1517.7	0.704037
1527.35	0.706854
1536.99	0.708453
1546.63	0.711703
1556.27	0.714894
1565.91	0.716431
1575.56	0.718765
1585.2	0.719924
1594.84	0.721634
1604.48	0.723778
1614.13	0.726159
1623.77	0.728666
1633.41	0.730739
1643.05	0.732541
1652.7	0.736873
1662.34	0.737101
1671.98	0.740023
1681.62	0.741473
1691.27	0.74397
1700.91	0.746523
1710.55	0.748677
1720.19	0.75072
1729.84	0.753964
1739.48	0.754143
1749.12	0.755852
1758.76	0.757715
1768.4	0.761208
1778.05	0.762313
1787.69	0.764259
1797.33	0.767838
1806.97	0.769061
1816.62	0.769899
1826.26	0.772119
1835.9	0.773697
1845.54	0.773985
1855.18	0.77912
1864.83	0.779117
1874.47	0.781695
1884.11	0.779397
1893.75	0.78096
1903.4	0.782796
1913.04	0.782873
1922.68	0.78103
1932.32	0.781759
1941.97	0.78071
1951.61	0.780094
1961.25	0.766881
1970.89	0.767043
1980.54	0.77256
1990.18	0.774678
1999.82	0.779672
2009.46	0.773666
2019.11	0.770122
2028.75	0.770691
2038.39	0.776867
2048.03	0.787879
2057.67	0.799355
2067.32	0.804125
2076.96	0.81063
2086.6	0.812164
2096.24	0.812689
2105.89	0.816086
2115.53	0.813456
2125.17	0.816569
2134.81	0.80339
2144.45	0.798961
2154.1	0.793731
2163.74	0.793536
2173.38	0.802872
2183.02	0.810029
2192.67	0.812888
2202.31	0.824066
2211.95	0.832066
2221.59	0.829863
2231.24	0.835068
2240.88	0.84017
2250.52	0.847895
2260.16	0.850682
2269.8	0.857715
2279.45	0.860123
2289.09	0.865916
2298.73	0.869756
2308.38	0.873307
2318.02	0.878795
2327.66	0.884487
2337.3	0.885197
2346.94	0.88666
2356.59	0.891421
2366.23	0.889883
2375.87	0.893583
2385.51	0.891707
2395.16	0.893817
2404.8	0.894612
2414.44	0.895964
2424.08	0.897282
2433.72	0.901812
2443.37	0.904478
2453.01	0.906744
2462.65	0.908476
2472.29	0.907237
2481.94	0.913601
2491.58	0.91628
2501.22	0.918025
2510.86	0.921238
2520.51	0.921498
2530.15	0.923523
2539.79	0.92824
2549.43	0.925598
2559.07	0.932567
2568.72	0.932632
2578.36	0.93341
2588	0.935273
2597.64	0.939069
2607.29	0.943007
2616.93	0.947659
2626.57	0.949363
2636.21	0.952727
2645.86	0.954443
2655.5	0.95755
2665.14	0.958207
2674.78	0.960611
2684.43	0.962126
2694.07	0.964342
2703.71	0.966834
2713.35	0.966643
2722.99	0.970997
2732.64	0.971584
2742.28	0.97337
2751.92	0.977439
2761.56	0.977767
2771.21	0.981982
2780.85	0.983068
2790.49	0.985915
2800.13	0.987437
2809.78	0.989145
2819.42	0.990718
2829.06	0.993177
2838.7	0.99611
2848.34	0.992968
2857.99	0.992522
2867.63	0.996019
2877.27	0.999034
2886.91	1.00515
2896.56	1.00433
2906.2	1.00742
2915.84	1.00463
2925.48	1.00107
2935.13	0.99982
2944.77	1.00459
2954.41	1.00799
2964.05	1.00864
2973.7	1.00961
2983.34	1.01157
2992.98	1.01688
3002.62	1.01895
3012.26	1.01861
3021.91	1.02205
3031.55	1.02748
3041.19	1.03057
3050.83	1.03102
3060.48	1.03394
3070.12	1.03637
3079.76	1.03693
3089.4	1.03952
3099.05	1.04408
3108.69	1.04187
3118.33	1.04849
3127.97	1.04551
3137.61	1.04896
3147.26	1.04734
3156.9	1.05524
3166.54	1.05743
3176.18	1.062
3185.83	1.06233
3195.47	1.06223
3205.11	1.06212
3214.75	1.07003
3224.4	1.071
3234.04	1.07391
3243.68	1.07538
3253.32	1.07544
3262.97	1.07593
3272.61	1.08088
3282.25	1.07934
3291.89	1.08174
3301.53	1.08467
3311.18	1.08455
3320.82	1.08781
3330.46	1.08887
3340.1	1.09119
3349.75	1.09052
3359.39	1.09118
3369.03	1.09782
3378.67	1.09918
3388.32	1.10356
3397.96	1.10388
3407.6	1.09603
3417.24	1.1017
3426.89	1.09898
3436.53	1.1008
3446.17	1.1074
3455.81	1.10467
3465.45	1.11184
3475.1	1.11259
3484.74	1.11454
3494.38	1.11514
3504.02	1.11645
3513.67	1.11871
3523.31	1.12627
3532.95	1.11916
3542.59	1.12271
3552.24	1.12081
3561.88	1.12404
3571.52	1.12494
3581.16	1.12691
3590.8	1.12832
3600.45	1.13938
3610.09	1.14089
3619.73	1.13866
3629.37	1.14597
3639.02	1.14708
3648.66	1.14674
3658.3	1.15504
3667.94	1.15888
3677.59	1.16328
3687.23	1.16391
3696.87	1.15732
3706.51	1.17335
3716.16	1.16467
3725.8	1.18066
3735.44	1.1703
3745.08	1.18329
3754.72	1.18278
3764.37	1.18567
3774.01	1.18714
3783.65	1.19255
3793.29	1.20127
3802.94	1.201
3812.58	1.20174
3822.22	1.20605
3831.86	1.20727
3841.51	1.21029
3851.15	1.21076
3860.79	1.2088
3870.43	1.21753
3880.07	1.21868
3889.72	1.22651
3899.36	1.21909
3909	1.22826
3918.64	1.2328
3928.29	1.23972
3937.93	1.24287
3947.57	1.24232
3957.21	1.23431
3966.86	1.24465
3976.5	1.24039
3986.14	1.24611
3995.78	1.24767
