Measurement: Infrared, Infrared Data Processed
Mineral: Pyrope
Rruff sample: R050446
Ideal chemistry: Mg_3_Al_2_(SiO_4_)_3_
Locality: Sunset Crater, Arizona, USA
Source: Marcus Origlieri
Description: Red fragment
Measured chemistry: (Mg_1.93_Fe^2+^_0.65_Ca_0.42_)_Î£=3_Al_2.00_(Si_1.00_O_4_)_3_
x	intensity
399.193	0.223783
408.835	0.23349
418.477	0.280448
428.12	0.315084
437.762	0.356062
447.404	0.345492
457.047	0.310028
466.689	0.256813
476.331	0.271609
485.974	0.225973
495.616	0.18741
505.258	0.156152
514.901	0.129436
524.543	0.125299
534.185	0.116033
543.828	0.0850366
553.47	0.0775924
563.112	0.147223
572.755	0.189612
582.397	0.127103
592.039	0.0860612
601.682	0.0578309
611.324	0.0416198
620.966	0.0354305
630.609	0.0326434
640.251	0.0343086
649.893	0.0364424
659.536	0.0347383
669.178	0.0330743
678.82	0.0334411
688.463	0.0348946
698.105	0.0358857
707.747	0.0378912
717.39	0.0405454
727.032	0.0445435
736.674	0.0491179
746.317	0.0553701
755.959	0.0634908
765.601	0.0753143
775.244	0.0913849
784.886	0.113995
794.528	0.143269
804.171	0.179935
813.813	0.21399
823.455	0.251741
833.098	0.302038
842.74	0.343101
852.382	0.371639
862.025	0.381704
871.667	0.351734
881.309	0.294194
890.952	0.312043
900.594	0.292444
910.236	0.226394
919.879	0.171205
929.521	0.131563
939.163	0.131504
948.806	0.209553
958.448	0.310977
968.09	0.281526
977.733	0.211997
987.375	0.163123
997.017	0.127854
1006.66	0.0989055
1016.3	0.0733645
1025.94	0.0516987
1035.59	0.0361469
1045.23	0.0279874
1054.87	0.0219714
1064.51	0.0183646
1074.16	0.0154435
1083.8	0.0135649
1093.44	0.0120398
1103.08	0.0110751
1112.72	0.00952138
1122.37	0.00813202
1132.01	0.0071377
1141.65	0.00631143
1151.3	0.0050209
1160.94	0.00442734
1170.58	0.00291501
1180.22	0.00270073
1189.86	0.00203459
1199.51	0.00173954
1209.15	0.00137973
1218.79	0.000876845
1228.43	0.000636363
1238.08	0.000412803
1247.72	7.22292e-05
1257.36	0.000303338
1267	0.000408542
1276.64	0.00123282
1286.29	0.000909994
1295.93	0.00105872
1305.57	0.00103084
1315.21	0.00140626
1324.86	0.00182584
1334.5	0.00217621
1344.14	0.00193168
1353.78	0.00209164
1363.43	0.0022788
1373.07	0.00249042
1382.71	0.00299232
1392.35	0.00391152
1401.99	0.00443671
1411.64	0.00441418
1421.28	0.00421038
1430.92	0.00438031
1440.57	0.00403683
1450.21	0.0030987
1459.85	0.00287222
1469.49	0.00304743
1479.13	0.00474268
1488.78	0.00559657
1498.42	0.00570319
1508.06	0.00569523
1517.7	0.00620225
1527.35	0.00646074
1536.99	0.00605408
1546.63	0.00687038
1556.27	0.00696104
1565.91	0.00668913
1575.56	0.00606452
1585.2	0.00602692
1594.84	0.0059316
1604.48	0.00570048
1614.13	0.00542535
1623.77	0.00590446
1633.41	0.00562332
1643.05	0.00616544
1652.7	0.00539982
1662.34	0.00565651
1671.98	0.00528027
1681.62	0.00494224
1691.27	0.00505809
1700.91	0.00419959
1710.55	0.0031286
1720.19	0.00356373
1729.84	0.00304048
1739.48	-0.000139581
1749.12	0.00155683
1758.76	0.00541059
1768.4	0.00669928
1778.05	0.00662433
1787.69	0.00729463
1797.33	0.00737419
1806.97	0.00750647
1816.62	0.00632302
1826.26	0.00719026
1835.9	0.00645251
1845.54	0.00726458
1855.18	0.00736556
1864.83	0.00715819
1874.47	0.00749822
1884.11	0.00766994
1893.75	0.00613066
1903.4	0.00498755
1913.04	0.00395783
1922.68	0.00474216
1932.32	0.00461824
1941.97	0.00566774
1951.61	0.0034071
1961.25	0.0020851
1970.89	0.00102085
1980.54	-0.000124347
1990.18	0.00336632
1999.82	0.00555792
2009.46	0.00381948
2019.11	0.00331525
2028.75	0.00337731
2038.39	0.00373887
2048.03	0.0059126
2057.67	0.00902308
2067.32	0.0109745
2076.96	0.00989429
2086.6	0.0105501
2096.24	0.00897382
2105.89	0.0117269
2115.53	0.00879626
2125.17	0.00811384
2134.81	0.00721296
2144.45	0.00772194
2154.1	0.00600005
2163.74	0.0130925
2173.38	0.0135354
2183.02	0.0112586
2192.67	0.0116462
2202.31	0.0116059
2211.95	0.0136117
2221.59	0.0134199
2231.24	0.0120835
2240.88	0.0128006
2250.52	0.0118495
2260.16	0.014498
2269.8	0.0136296
2279.45	0.0144913
2289.09	0.0145407
2298.73	0.0141181
2308.38	0.0153589
2318.02	0.0167038
2327.66	0.0161966
2337.3	0.0158321
2346.94	0.0141031
2356.59	0.0151461
2366.23	0.0159154
2375.87	0.0142233
2385.51	0.0140719
2395.16	0.0148399
2404.8	0.0149934
2414.44	0.0144414
2424.08	0.0151739
2433.72	0.014287
2443.37	0.0139893
2453.01	0.0155148
2462.65	0.014183
2472.29	0.016656
2481.94	0.0144152
2491.58	0.0159608
2501.22	0.0151679
2510.86	0.0169317
2520.51	0.0165516
2530.15	0.0142369
2539.79	0.0154655
2549.43	0.0169668
2559.07	0.0156968
2568.72	0.0163443
2578.36	0.0147075
2588	0.0164355
2597.64	0.0172394
2607.29	0.0177479
2616.93	0.0172846
2626.57	0.0174783
2636.21	0.0186236
2645.86	0.0180468
2655.5	0.0178132
2665.14	0.0171301
2674.78	0.0175544
2684.43	0.0169336
2694.07	0.0169462
2703.71	0.01822
2713.35	0.0175485
2722.99	0.0179628
2732.64	0.0174668
2742.28	0.0182158
2751.92	0.0189499
2761.56	0.0187368
2771.21	0.0188565
2780.85	0.0184698
2790.49	0.018566
2800.13	0.0180584
2809.78	0.0193121
2819.42	0.0185087
2829.06	0.0171436
2838.7	0.0146255
2848.34	0.00726237
2857.99	0.00589435
2867.63	0.0123628
2877.27	0.0118298
2886.91	0.0135554
2896.56	0.00962604
2906.2	0.00626617
2915.84	-1.36225e-05
2925.48	-0.00920584
2935.13	0.0023665
2944.77	0.00656792
2954.41	0.00875231
2964.05	0.0116349
2973.7	0.0155171
2983.34	0.0167026
2992.98	0.0194961
3002.62	0.020178
3012.26	0.0200361
3021.91	0.0213482
3031.55	0.0225358
3041.19	0.022
3050.83	0.0233532
3060.48	0.0222445
3070.12	0.0220165
3079.76	0.0237222
3089.4	0.0231504
3099.05	0.0216766
3108.69	0.023771
3118.33	0.0245671
3127.97	0.0239982
3137.61	0.0265095
3147.26	0.023549
3156.9	0.0248086
3166.54	0.0254286
3176.18	0.0239115
3185.83	0.0230547
3195.47	0.0255035
3205.11	0.0256859
3214.75	0.0255431
3224.4	0.0241798
3234.04	0.0239035
3243.68	0.0250889
3253.32	0.0252251
3262.97	0.0256081
3272.61	0.0257617
3282.25	0.0254254
3291.89	0.0224973
3301.53	0.0268452
3311.18	0.0263306
3320.82	0.026537
3330.46	0.0251858
3340.1	0.0250484
3349.75	0.0265254
3359.39	0.0250659
3369.03	0.0246426
3378.67	0.022388
3388.32	0.025148
3397.96	0.0284778
3407.6	0.0264561
3417.24	0.0254337
3426.89	0.0244894
3436.53	0.0282453
3446.17	0.0260318
3455.81	0.0260243
3465.45	0.0289276
3475.1	0.026528
3484.74	0.0266972
3494.38	0.0289279
3504.02	0.0271506
3513.67	0.0262426
3523.31	0.0284824
3532.95	0.0255007
3542.59	0.029102
3552.24	0.0260539
3561.88	0.0319497
3571.52	0.028972
3581.16	0.0279636
3590.8	0.0254315
3600.45	0.026115
3610.09	0.0281117
3619.73	0.0271006
3629.37	0.0300593
3639.02	0.0261116
3648.66	0.0255405
3658.3	0.0237118
3667.94	0.0226217
3677.59	0.0242895
3687.23	0.026012
3696.87	0.0245401
3706.51	0.0235287
3716.16	0.0274916
3725.8	0.0313603
3735.44	0.0268087
3745.08	0.0229905
3754.72	0.0250438
3764.37	0.0267177
3774.01	0.0263571
3783.65	0.0270789
3793.29	0.0213276
3802.94	0.0287356
3812.58	0.0285569
3822.22	0.0260327
3831.86	0.0254828
3841.51	0.02798
3851.15	0.0299168
3860.79	0.0228781
3870.43	0.0266868
3880.07	0.0293483
3889.72	0.0309594
3899.36	0.0245806
3909	0.031446
3918.64	0.027765
3928.29	0.0262974
3937.93	0.0275111
3947.57	0.0303218
3957.21	0.0283769
3966.86	0.0252972
3976.5	0.0282266
3986.14	0.0340089
3995.78	0.0302856
