Measurement: Infrared, Infrared Data Processed
Mineral: Pyrosmalite-(Fe)
Rruff sample: R050158
Ideal chemistry: Fe^2+^_8_Si_6_O_15_(OH)_10_
Locality: Burguillos del Cerro, Badajos, Spain
Source: Jim McGlasson
Description: Green subhedral crystal aggregate
Measured chemistry: (Fe^2+^_0.92_Mn^2+^_0.06_Mg_0.02_)_8_Si_6_O_15_(OH_0.83_Cl_0.17_)_10_
x	intensity
374.123	0.179207
383.765	0.260218
393.407	0.234245
403.05	0.252444
412.692	0.252258
422.334	0.254374
431.976	0.263543
441.619	0.20376
451.261	0.146545
460.904	0.106118
470.546	0.0767126
480.188	0.0617251
489.83	0.0649917
499.473	0.090978
509.115	0.146659
518.758	0.091308
528.4	0.0759241
538.042	0.0832095
547.684	0.04773
557.327	0.0435739
566.969	0.0452106
576.611	0.0469807
586.254	0.0453135
595.896	0.0488932
605.538	0.0603953
615.181	0.0770907
624.823	0.10052
634.466	0.140355
644.108	0.179806
653.75	0.17971
663.393	0.234651
673.035	0.183633
682.677	0.0984919
692.319	0.0738214
701.962	0.0980755
711.604	0.119942
721.246	0.122854
730.889	0.109691
740.531	0.103106
750.173	0.100515
759.816	0.122757
769.458	0.0881957
779.101	0.0576681
788.743	0.0509264
798.385	0.0423446
808.028	0.0357654
817.67	0.0336797
827.312	0.0348757
836.955	0.0370644
846.597	0.0400678
856.239	0.0441694
865.881	0.0492727
875.524	0.05594
885.166	0.0629209
894.808	0.072624
904.451	0.0845072
914.093	0.0999521
923.736	0.11971
933.378	0.146217
943.02	0.185189
952.663	0.234826
962.305	0.24148
971.947	0.280272
981.59	0.322045
991.232	0.344154
1000.87	0.321085
1010.52	0.298967
1020.16	0.270474
1029.8	0.249789
1039.44	0.255723
1049.09	0.296064
1058.73	0.314719
1068.37	0.252016
1078.01	0.177386
1087.65	0.121873
1097.3	0.0820166
1106.94	0.0560834
1116.58	0.0481552
1126.22	0.0617714
1135.87	0.0773339
1145.51	0.0781117
1155.15	0.0830478
1164.79	0.0498195
1174.44	0.0396436
1184.08	0.0248124
1193.72	0.0141365
1203.36	0.00943891
1213.01	0.00739773
1222.65	0.00666485
1232.29	0.00619748
1241.93	0.00556053
1251.58	0.00509885
1261.22	0.00469474
1270.86	0.00479344
1280.5	0.00496403
1290.14	0.00475896
1299.79	0.0049247
1309.43	0.00525248
1319.07	0.00531243
1328.71	0.00530992
1338.36	0.00562309
1348	0.00592306
1357.64	0.00626528
1367.28	0.00677847
1376.92	0.00733727
1386.57	0.00768191
1396.21	0.00814431
1405.85	0.00857736
1415.49	0.00912093
1425.14	0.00950184
1434.78	0.00974801
1444.42	0.00970468
1454.06	0.00993658
1463.71	0.00997835
1473.35	0.0094926
1482.99	0.00914779
1492.63	0.00895652
1502.28	0.00839281
1511.92	0.00841557
1521.56	0.00834338
1531.2	0.0078011
1540.85	0.00854447
1550.49	0.00811123
1560.13	0.00905704
1569.77	0.00898356
1579.41	0.00929471
1589.06	0.0096526
1598.7	0.0100532
1608.34	0.0102679
1617.98	0.0102727
1627.63	0.00971201
1637.27	0.00953327
1646.91	0.00945513
1656.55	0.00857848
1666.19	0.00802757
1675.84	0.007869
1685.48	0.00783761
1695.12	0.00728525
1704.77	0.00659337
1714.41	0.00663951
1724.05	0.00619234
1733.69	0.00643858
1743.33	0.00514097
1752.98	0.00504106
1762.62	0.00519015
1772.26	0.00535742
1781.9	0.00531086
1791.55	0.00559574
1801.19	0.00489315
1810.83	0.00538935
1820.47	0.00536462
1830.12	0.00507114
1839.76	0.00511212
1849.4	0.00503789
1859.04	0.00477572
1868.68	0.00510929
1878.33	0.00428292
1887.97	0.00414767
1897.61	0.00354258
1907.25	0.00452199
1916.9	0.00407628
1926.54	0.00412348
1936.18	0.00398019
1945.82	0.00347664
1955.46	0.00355603
1965.11	0.00366912
1974.75	0.00500535
1984.39	0.00652323
1994.04	0.0044684
2003.68	0.00390023
2013.32	0.00468042
2022.96	0.00497533
2032.6	0.00637926
2042.25	0.00580508
2051.89	0.00582325
2061.53	0.00498026
2071.17	0.00500975
2080.82	0.00431103
2090.46	0.00398661
2100.1	0.00440352
2109.74	0.0044582
2119.39	0.00276885
2129.03	0.00284154
2138.67	0.00462193
2148.31	0.0044955
2157.95	0.00765539
2167.6	0.00921681
2177.24	0.00788977
2186.88	0.00864921
2196.52	0.00935897
2206.17	0.0085158
2215.81	0.0082434
2225.45	0.00876271
2235.09	0.0100033
2244.74	0.0102971
2254.38	0.00893621
2264.02	0.007581
2273.66	0.00917283
2283.3	0.00778316
2292.95	0.00768026
2302.59	0.00758149
2312.23	0.006928
2321.87	0.00792021
2331.52	0.00694008
2341.16	0.0074152
2350.8	0.00702302
2360.44	0.00804307
2370.09	0.00763715
2379.73	0.00666897
2389.37	0.00743356
2399.01	0.00784894
2408.66	0.00796707
2418.3	0.00838587
2427.94	0.00806302
2437.58	0.00847549
2447.22	0.00823486
2456.87	0.00877852
2466.51	0.00895986
2476.15	0.00806388
2485.79	0.00833257
2495.44	0.00768462
2505.08	0.00874423
2514.72	0.00822528
2524.36	0.00770471
2534.01	0.00864651
2543.65	0.00920861
2553.29	0.0088632
2562.93	0.0089065
2572.57	0.00962715
2582.22	0.00906701
2591.86	0.00966763
2601.5	0.00966958
2611.14	0.00980266
2620.79	0.0098259
2630.43	0.0103153
2640.07	0.0101993
2649.71	0.0101739
2659.36	0.00954969
2669	0.00911722
2678.64	0.00959564
2688.28	0.00971071
2697.93	0.00992027
2707.57	0.00998182
2717.21	0.0100484
2726.85	0.0104394
2736.49	0.0104749
2746.14	0.0108806
2755.78	0.0107255
2765.42	0.0111245
2775.06	0.0115574
2784.71	0.0113161
2794.35	0.0116554
2803.99	0.0114206
2813.63	0.0120321
2823.28	0.0124243
2832.92	0.0123806
2842.56	0.0126552
2852.2	0.0128797
2861.84	0.0135389
2871.49	0.0136247
2881.13	0.0140492
2890.77	0.0142649
2900.41	0.0144769
2910.06	0.0150084
2919.7	0.0155429
2929.34	0.0150519
2938.98	0.0154038
2948.62	0.0151453
2958.27	0.015764
2967.91	0.0150408
2977.55	0.0141697
2987.2	0.0152138
2996.84	0.0147734
3006.48	0.0153227
3016.12	0.0160509
3025.76	0.0155754
3035.41	0.0160957
3045.05	0.016908
3054.69	0.0165306
3064.33	0.0160085
3073.98	0.0172523
3083.62	0.0177392
3093.26	0.0182822
3102.9	0.0185469
3112.55	0.0196572
3122.19	0.0199017
3131.83	0.0195459
3141.47	0.0206454
3151.11	0.0203522
3160.76	0.0211065
3170.4	0.0219872
3180.04	0.0227964
3189.68	0.0232045
3199.33	0.0228612
3208.97	0.023601
3218.61	0.0237486
3228.25	0.0246054
3237.9	0.0260369
3247.54	0.0262872
3257.18	0.0270417
3266.82	0.0281004
3276.47	0.0283415
3286.11	0.0290015
3295.75	0.0291318
3305.39	0.0295959
3315.03	0.0325291
3324.68	0.0324131
3334.32	0.0324962
3343.96	0.0336424
3353.6	0.0334555
3363.25	0.0339291
3372.89	0.0337904
3382.53	0.0334699
3392.17	0.0330388
3401.82	0.0335266
3411.46	0.0326545
3421.1	0.0343115
3430.74	0.0336374
3440.39	0.0351936
3450.03	0.0359448
3459.67	0.0368502
3469.31	0.0378872
3478.95	0.0399602
3488.6	0.0413898
3498.24	0.0446263
3507.88	0.0513076
3517.52	0.063157
3527.17	0.0773347
3536.81	0.0971192
3546.45	0.131068
3556.09	0.117279
3565.74	0.0784112
3575.38	0.110983
3585.02	0.07967
3594.66	0.0507367
3604.3	0.0198582
3613.95	0.0116385
3623.59	0.0252734
3633.23	0.008828
3642.87	0.00506174
3652.52	0.00371307
3662.16	0.00225931
3671.8	0.00277312
3681.44	0.00160747
3691.09	0.00359316
3700.73	0.00542486
3710.37	0.00645302
3720.01	0.00539761
3729.66	0.00719815
3739.3	0.00655159
3748.94	0.00819383
3758.58	0.00695489
3768.22	0.00764884
3777.87	0.00723589
3787.51	0.00670669
3797.15	0.00758837
3806.79	0.0079613
3816.44	0.00913264
3826.08	0.00987815
3835.72	0.00655012
3845.36	0.00652796
3855.01	0.00748844
3864.65	0.00701492
3874.29	0.00697952
3883.93	0.008032
3893.57	0.00722617
3903.22	0.00838249
3912.86	0.0075453
3922.5	0.00893551
3932.14	0.0076581
3941.79	0.00916364
3951.43	0.00730525
3961.07	0.00959151
3970.71	0.00766524
3980.36	0.00845158
3990	0.00929918
3999.64	0.00772021
