Measurement: Infrared, Infrared Data Processed
Mineral: Pyrope
Rruff sample: R050113
Ideal chemistry: Mg_3_Al_2_(SiO_4_)_3_
Locality: Warsik, Pakistan
Source: Farooq and Nazia Sawal
Description: Reddish-purple fragment
Measured chemistry: (Mg_1.83_Fe^2+^_1.12_Ca_0.03_Mn_0.02_)_Σ=3_(Al_1.82_Fe^3+^_0.18_)_Σ=2_((Si_0.99_Al_0.01_)_Σ=1_O_4_)_3_
x	intensity
399.193	0.119421
408.835	0.165077
418.477	0.194289
428.12	0.207616
437.762	0.219609
447.404	0.221174
457.047	0.191802
466.689	0.215163
476.331	0.183986
485.974	0.157877
495.616	0.131388
505.258	0.102116
514.901	0.0746475
524.543	0.0766969
534.185	0.049137
543.828	0.0533924
553.47	0.124419
563.112	0.158108
572.755	0.113399
582.397	0.0702762
592.039	0.0395201
601.682	0.0270014
611.324	0.0251122
620.966	0.030833
630.609	0.0538679
640.251	0.0326514
649.893	0.0235759
659.536	0.0225546
669.178	0.023405
678.82	0.0249132
688.463	0.0267035
698.105	0.0296627
707.747	0.0334164
717.39	0.0382919
727.032	0.0441515
736.674	0.0530531
746.317	0.0631837
755.959	0.0714194
765.601	0.0782135
775.244	0.0918062
784.886	0.107676
794.528	0.124249
804.171	0.140934
813.813	0.157889
823.455	0.175774
833.098	0.19222
842.74	0.206016
852.382	0.214779
862.025	0.215232
871.667	0.203301
881.309	0.179731
890.952	0.188667
900.594	0.166512
910.236	0.12914
919.879	0.0892491
929.521	0.0790951
939.163	0.126356
948.806	0.18773
958.448	0.185609
968.09	0.15434
977.733	0.124219
987.375	0.0979256
997.017	0.0728739
1006.66	0.0510765
1016.3	0.033744
1025.94	0.0220426
1035.59	0.0163514
1045.23	0.0126077
1054.87	0.0109759
1064.51	0.00926812
1074.16	0.00797672
1083.8	0.00788729
1093.44	0.00843956
1103.08	0.00688173
1112.72	0.00550112
1122.37	0.00467147
1132.01	0.00409657
1141.65	0.00384035
1151.3	0.00372924
1160.94	0.00310894
1170.58	0.00306876
1180.22	0.00272408
1189.86	0.00260997
1199.51	0.00253742
1209.15	0.00272171
1218.79	0.00264564
1228.43	0.00265075
1238.08	0.00285482
1247.72	0.00269011
1257.36	0.00282155
1267	0.0030816
1276.64	0.00321624
1286.29	0.00349877
1295.93	0.00372097
1305.57	0.00380717
1315.21	0.00441899
1324.86	0.00460827
1334.5	0.00475722
1344.14	0.00504351
1353.78	0.0050392
1363.43	0.00551337
1373.07	0.00584486
1382.71	0.00596504
1392.35	0.00620681
1401.99	0.00636481
1411.64	0.00667948
1421.28	0.00677036
1430.92	0.00691742
1440.57	0.00714089
1450.21	0.00734932
1459.85	0.00735413
1469.49	0.00726178
1479.13	0.00742775
1488.78	0.00763182
1498.42	0.00800772
1508.06	0.00826684
1517.7	0.00846627
1527.35	0.00897413
1536.99	0.00918974
1546.63	0.00930237
1556.27	0.00971401
1565.91	0.0097032
1575.56	0.0100506
1585.2	0.00988159
1594.84	0.0103755
1604.48	0.0102816
1614.13	0.010475
1623.77	0.0108441
1633.41	0.011155
1643.05	0.0113489
1652.7	0.0117616
1662.34	0.011306
1671.98	0.0109192
1681.62	0.0108838
1691.27	0.0108416
1700.91	0.0107187
1710.55	0.0106541
1720.19	0.0108031
1729.84	0.0106775
1739.48	0.0101749
1749.12	0.0106487
1758.76	0.0109032
1768.4	0.0110985
1778.05	0.0107059
1787.69	0.011455
1797.33	0.0113431
1806.97	0.0113789
1816.62	0.0106992
1826.26	0.0113012
1835.9	0.0113006
1845.54	0.0121747
1855.18	0.0119797
1864.83	0.011952
1874.47	0.0109893
1884.11	0.0110121
1893.75	0.00999444
1903.4	0.0107245
1913.04	0.0099818
1922.68	0.0100837
1932.32	0.00960441
1941.97	0.00943728
1951.61	0.00970222
1961.25	0.0108652
1970.89	0.00885325
1980.54	0.0116107
1990.18	0.0113927
1999.82	0.0104854
2009.46	0.0124322
2019.11	0.0121399
2028.75	0.0123669
2038.39	0.0131882
2048.03	0.0156903
2057.67	0.0142733
2067.32	0.01508
2076.96	0.0148278
2086.6	0.0152997
2096.24	0.0148164
2105.89	0.0152262
2115.53	0.015446
2125.17	0.0161739
2134.81	0.014975
2144.45	0.0147355
2154.1	0.0146913
2163.74	0.018229
2173.38	0.0157327
2183.02	0.0164522
2192.67	0.0168948
2202.31	0.0170919
2211.95	0.0157081
2221.59	0.017351
2231.24	0.0166767
2240.88	0.0163286
2250.52	0.0161923
2260.16	0.0169405
2269.8	0.0177983
2279.45	0.0171751
2289.09	0.0183926
2298.73	0.0178556
2308.38	0.0180366
2318.02	0.0186835
2327.66	0.0182492
2337.3	0.0186671
2346.94	0.0182541
2356.59	0.0192003
2366.23	0.0184397
2375.87	0.0181663
2385.51	0.0182323
2395.16	0.0186261
2404.8	0.0182149
2414.44	0.0184163
2424.08	0.018336
2433.72	0.0183975
2443.37	0.0182961
2453.01	0.0187806
2462.65	0.0195725
2472.29	0.0198263
2481.94	0.0194566
2491.58	0.0196027
2501.22	0.0196094
2510.86	0.0188286
2520.51	0.0198109
2530.15	0.0194224
2539.79	0.0196539
2549.43	0.0203613
2559.07	0.0191799
2568.72	0.0199699
2578.36	0.0203052
2588	0.0205284
2597.64	0.0207008
2607.29	0.0201908
2616.93	0.0205518
2626.57	0.021375
2636.21	0.0203718
2645.86	0.0211881
2655.5	0.0211665
2665.14	0.0204391
2674.78	0.020536
2684.43	0.0203839
2694.07	0.0209158
2703.71	0.0204336
2713.35	0.020699
2722.99	0.0208015
2732.64	0.0211276
2742.28	0.0210993
2751.92	0.0213227
2761.56	0.0218182
2771.21	0.0218109
2780.85	0.0213297
2790.49	0.0220678
2800.13	0.0220962
2809.78	0.0217387
2819.42	0.0220746
2829.06	0.0219368
2838.7	0.0224692
2848.34	0.0231628
2857.99	0.0226136
2867.63	0.0227503
2877.27	0.0223321
2886.91	0.0222439
2896.56	0.0230466
2906.2	0.0229609
2915.84	0.0230329
2925.48	0.0223935
2935.13	0.0220783
2944.77	0.0217503
2954.41	0.0224274
2964.05	0.0216936
2973.7	0.0220102
2983.34	0.0214281
2992.98	0.02271
3002.62	0.0221192
3012.26	0.0214633
3021.91	0.0220788
3031.55	0.0221515
3041.19	0.0221686
3050.83	0.0228072
3060.48	0.0233562
3070.12	0.0229969
3079.76	0.0225443
3089.4	0.0233914
3099.05	0.0225655
3108.69	0.0234598
3118.33	0.0234202
3127.97	0.0229911
3137.61	0.0232705
3147.26	0.0242183
3156.9	0.0229925
3166.54	0.0245765
3176.18	0.023928
3185.83	0.0242341
3195.47	0.0233254
3205.11	0.0233114
3214.75	0.0243387
3224.4	0.0253479
3234.04	0.0235351
3243.68	0.024915
3253.32	0.0247419
3262.97	0.02418
3272.61	0.0242706
3282.25	0.0239853
3291.89	0.0251484
3301.53	0.0239933
3311.18	0.0238631
3320.82	0.0239979
3330.46	0.0237447
3340.1	0.023577
3349.75	0.0245978
3359.39	0.0250424
3369.03	0.0246875
3378.67	0.0240159
3388.32	0.0241307
3397.96	0.0235561
3407.6	0.0241858
3417.24	0.0255059
3426.89	0.0245787
3436.53	0.024746
3446.17	0.0242746
3455.81	0.0236017
3465.45	0.024686
3475.1	0.0221387
3484.74	0.023924
3494.38	0.0225699
3504.02	0.0229621
3513.67	0.0226368
3523.31	0.0238039
3532.95	0.0231243
3542.59	0.0222473
3552.24	0.0228138
3561.88	0.0229737
3571.52	0.023304
3581.16	0.0223205
3590.8	0.022972
3600.45	0.0212808
3610.09	0.0227472
3619.73	0.0224701
3629.37	0.02218
3639.02	0.0221928
3648.66	0.0225447
3658.3	0.0213217
3667.94	0.0213554
3677.59	0.0236686
3687.23	0.0221746
3696.87	0.0217962
3706.51	0.0233406
3716.16	0.0220828
3725.8	0.0221025
3735.44	0.0220496
3745.08	0.0233404
3754.72	0.0226276
3764.37	0.0229694
3774.01	0.0236894
3783.65	0.0228049
3793.29	0.0232445
3802.94	0.0222832
3812.58	0.0220912
3822.22	0.0222706
3831.86	0.021571
3841.51	0.0228378
3851.15	0.0239663
3860.79	0.0215543
3870.43	0.0226664
3880.07	0.0228723
3889.72	0.0241939
3899.36	0.0232825
3909	0.0225382
3918.64	0.0227373
3928.29	0.022604
3937.93	0.0226441
3947.57	0.0231101
3957.21	0.0223234
3966.86	0.0235504
3976.5	0.0221105
3986.14	0.0231828
3995.78	0.024549
