Measurement: Infrared, Infrared Data Processed
Mineral: Pyrophyllite
Rruff sample: R050108
Ideal chemistry: Al_2_Si_4_O_10_(OH)_2_
Locality: Graves Mountain, Lincoln County, Georgia, USA
Source: Rock Currier
Description: Lamellar radial aggregates
Measured chemistry: (Al_.976_Fe_.020_Mg_.002_Ca_.001_)_2_Si_4_O_10_(OH)_2_
x	intensity
399.193	0
408.835	0.19847
418.477	0.259225
428.12	0.246257
437.762	0.273985
447.404	0.305795
457.047	0.306671
466.689	0.293704
476.331	0.280136
485.974	0.224839
495.616	0.189891
505.258	0.217268
514.901	0.307337
524.543	0.287459
534.185	0.293159
543.828	0.212845
553.47	0.161522
563.112	0.130754
572.755	0.10068
582.397	0.0914955
592.039	0.0851902
601.682	0.0770229
611.324	0.0712938
620.966	0.0734481
630.609	0.0683457
640.251	0.0686868
649.893	0.073305
659.536	0.0762898
669.178	0.0787083
678.82	0.0803358
688.463	0.0802293
698.105	0.0811134
707.747	0.081024
717.39	0.0818693
727.032	0.0859881
736.674	0.0894203
746.317	0.0811719
755.959	0.0810578
765.601	0.0843012
775.244	0.0896761
784.886	0.0972937
794.528	0.110172
804.171	0.139432
813.813	0.160262
823.455	0.136649
833.098	0.210647
842.74	0.145985
852.382	0.181339
862.025	0.151155
871.667	0.154934
881.309	0.175112
890.952	0.207189
900.594	0.256076
910.236	0.295761
919.879	0.351426
929.521	0.414327
939.163	0.477371
948.806	0.445753
958.448	0.281921
968.09	0.275011
977.733	0.319274
987.375	0.378525
997.017	0.434314
1006.66	0.477791
1016.3	0.505797
1025.94	0.513819
1035.59	0.494405
1045.23	0.443857
1054.87	0.32857
1064.51	0.315547
1074.16	0.23922
1083.8	0.177826
1093.44	0.143332
1103.08	0.115009
1112.72	0.117024
1122.37	0.200147
1132.01	0.132927
1141.65	0.103606
1151.3	0.0834017
1160.94	0.0655028
1170.58	0.0503592
1180.22	0.036363
1189.86	0.0246785
1199.51	0.0171197
1209.15	0.0128787
1218.79	0.0106382
1228.43	0.00916687
1238.08	0.00803589
1247.72	0.00708855
1257.36	0.00641832
1267	0.00597083
1276.64	0.00585672
1286.29	0.0052081
1295.93	0.00512596
1305.57	0.00481412
1315.21	0.00456216
1324.86	0.00402504
1334.5	0.00383166
1344.14	0.00351202
1353.78	0.00314617
1363.43	0.00307401
1373.07	0.00331133
1382.71	0.00304407
1392.35	0.00302783
1401.99	0.00301952
1411.64	0.00279251
1421.28	0.00273635
1430.92	0.00280036
1440.57	0.00307538
1450.21	0.00338781
1459.85	0.00321646
1469.49	0.00332268
1479.13	0.00262268
1488.78	0.00264534
1498.42	0.00233083
1508.06	0.00211868
1517.7	0.00206039
1527.35	0.00229343
1536.99	0.00239575
1546.63	0.00261348
1556.27	0.00276449
1565.91	0.00338796
1575.56	0.00339765
1585.2	0.00361335
1594.84	0.00342662
1604.48	0.00369056
1614.13	0.0041395
1623.77	0.00409261
1633.41	0.00441098
1643.05	0.00465856
1652.7	0.00391778
1662.34	0.0046006
1671.98	0.00400979
1681.62	0.0038597
1691.27	0.00387734
1700.91	0.00429755
1710.55	0.0044043
1720.19	0.00482637
1729.84	0.00432358
1739.48	0.00328549
1749.12	0.00326975
1758.76	0.00341873
1768.4	0.00381602
1778.05	0.00370391
1787.69	0.00357666
1797.33	0.00350222
1806.97	0.00326516
1816.62	0.00278044
1826.26	0.00352456
1835.9	0.00330346
1845.54	0.0031611
1855.18	0.00375787
1864.83	0.00377692
1874.47	0.00596797
1884.11	0.00553151
1893.75	0.00443909
1903.4	0.00313498
1913.04	0.00244559
1922.68	0.000465687
1932.32	0.000294057
1941.97	-0.000739931
1951.61	-0.00193343
1961.25	-0.00416676
1970.89	-0.00534087
1980.54	-0.00229956
1990.18	-0.00632442
1999.82	-0.00613715
2009.46	-0.00483449
2019.11	-0.00681457
2028.75	-0.00982526
2038.39	-0.00619178
2048.03	-0.00501985
2057.67	-0.00530136
2067.32	-0.00470588
2076.96	-0.00363365
2086.6	-0.00397899
2096.24	-0.00530477
2105.89	-0.00173564
2115.53	-0.00350992
2125.17	-0.0036265
2134.81	-0.00711181
2144.45	-0.00677985
2154.1	-0.00934912
2163.74	-0.00485627
2173.38	-0.00382348
2183.02	-0.00206526
2192.67	-0.00286727
2202.31	-0.00161521
2211.95	0.000137689
2221.59	0.00215657
2231.24	0.000224624
2240.88	-0.000877298
2250.52	-0.000132386
2260.16	9.27337e-05
2269.8	0.0010446
2279.45	0.00254823
2289.09	0.00271634
2298.73	0.00206114
2308.38	0.00226594
2318.02	0.0033857
2327.66	0.00237542
2337.3	0.00230529
2346.94	0.00188035
2356.59	0.00256915
2366.23	0.0021528
2375.87	0.00283685
2385.51	0.00254625
2395.16	0.00269776
2404.8	0.00327276
2414.44	0.00323157
2424.08	0.00251372
2433.72	0.00357028
2443.37	0.00311011
2453.01	0.00310248
2462.65	0.00345323
2472.29	0.00316325
2481.94	0.00314529
2491.58	0.00372333
2501.22	0.00329919
2510.86	0.00414577
2520.51	0.00353464
2530.15	0.00282154
2539.79	0.00422322
2549.43	0.0050813
2559.07	0.00527
2568.72	0.00472628
2578.36	0.00431032
2588	0.00519502
2597.64	0.00459995
2607.29	0.00378354
2616.93	0.00588691
2626.57	0.00485478
2636.21	0.00516011
2645.86	0.00413559
2655.5	0.00465986
2665.14	0.00469262
2674.78	0.00424667
2684.43	0.00462282
2694.07	0.00420781
2703.71	0.00448649
2713.35	0.00350424
2722.99	0.005308
2732.64	0.00414448
2742.28	0.00428109
2751.92	0.00517618
2761.56	0.00541834
2771.21	0.00566703
2780.85	0.00485173
2790.49	0.00560187
2800.13	0.00579976
2809.78	0.0047953
2819.42	0.00539903
2829.06	0.00526366
2838.7	0.00587143
2848.34	0.00370619
2857.99	0.00500723
2867.63	0.00494697
2877.27	0.00648418
2886.91	0.00616381
2896.56	0.0057812
2906.2	0.00545898
2915.84	0.00423336
2925.48	0.00430987
2935.13	0.00474007
2944.77	0.00662234
2954.41	0.00647429
2964.05	0.00756119
2973.7	0.00694535
2983.34	0.0076879
2992.98	0.00759619
3002.62	0.00822106
3012.26	0.0070529
3021.91	0.00730341
3031.55	0.00753462
3041.19	0.00638762
3050.83	0.00900407
3060.48	0.00851291
3070.12	0.00809543
3079.76	0.00945054
3089.4	0.00863041
3099.05	0.00852843
3108.69	0.0104737
3118.33	0.00922384
3127.97	0.00848027
3137.61	0.0100539
3147.26	0.0111956
3156.9	0.0110809
3166.54	0.0117696
3176.18	0.0117688
3185.83	0.0113338
3195.47	0.0116883
3205.11	0.011537
3214.75	0.012343
3224.4	0.0123518
3234.04	0.011873
3243.68	0.0105074
3253.32	0.0106322
3262.97	0.0117964
3272.61	0.0131594
3282.25	0.0122223
3291.89	0.01195
3301.53	0.0128726
3311.18	0.0117738
3320.82	0.012051
3330.46	0.0126169
3340.1	0.0140879
3349.75	0.0134984
3359.39	0.0132181
3369.03	0.0133393
3378.67	0.0127404
3388.32	0.0133284
3397.96	0.0136679
3407.6	0.0141352
3417.24	0.014383
3426.89	0.0137116
3436.53	0.0140136
3446.17	0.0139096
3455.81	0.013635
3465.45	0.0146649
3475.1	0.0138348
3484.74	0.0154235
3494.38	0.0114188
3504.02	0.0140405
3513.67	0.0129106
3523.31	0.0135341
3532.95	0.0114865
3542.59	0.0133731
3552.24	0.013297
3561.88	0.0151362
3571.52	0.0137722
3581.16	0.0138
3590.8	0.0145402
3600.45	0.0144168
3610.09	0.0161093
3619.73	0.018078
3629.37	0.0193211
3639.02	0.0235389
3648.66	0.0346521
3658.3	0.0592106
3667.94	0.249518
3677.59	0.236839
3687.23	0.0234435
3696.87	0.010522
3706.51	0.00934156
3716.16	0.00663687
3725.8	0.00774394
3735.44	0.00432451
3745.08	0.00556774
3754.72	0.00582269
3764.37	0.00820396
3774.01	0.0083832
3783.65	0.00830223
3793.29	0.00931398
3802.94	0.00823736
3812.58	0.00971691
3822.22	0.0112516
3831.86	0.00716234
3841.51	0.00898802
3851.15	0.00912438
3860.79	0.00707815
3870.43	0.00801169
3880.07	0.00818736
3889.72	0.00922736
3899.36	0.0107171
3909	0.00702522
3918.64	0.0079746
3928.29	0.00952659
3937.93	0.00848182
3947.57	0.00876724
3957.21	0.00740654
3966.86	0.00977302
3976.5	0.00774813
3986.14	0.0110238
3995.78	0.00843544
