Measurement: Infrared, Infrared Data Processed
Mineral: Pyroxmangite
Rruff sample: R070212
Ideal chemistry: Mn^2+^SiO_3_
Locality: Isanago mine,  Ohro (Ōro; Ouro; Ooro),  Naka-gun,  Kyoto Prefecture,  Kinki Region,  Honshu Island,  Japan
Source: Michael Scott
Description: Pale yellow to brown semitransparent massive associated with quartz
Measured chemistry: (Mn_0.47_Fe^2+^_0.39_Mg_0.08_Ca_0.06_)_Σ=1_Si_1.00_O_3_ ; veins: (Mn_0.35_Fe_0.26_Ca_0.22_Mg_0.17_)_Σ=1_CO_3_ (rhodochrosite)
x	intensity
374.123	0.102561
383.765	0.0916361
393.407	0.104854
403.05	0.0942983
412.692	0.0978191
422.334	0.100942
431.976	0.117952
441.619	0.13032
451.261	0.146461
460.904	0.143173
470.546	0.136656
480.188	0.130874
489.83	0.126514
499.473	0.118624
509.115	0.104245
518.758	0.0939528
528.4	0.0846001
538.042	0.066986
547.684	0.0497115
557.327	0.0559118
566.969	0.0570023
576.611	0.0519218
586.254	0.0396012
595.896	0.028879
605.538	0.028584
615.181	0.0323103
624.823	0.0396231
634.466	0.0482757
644.108	0.043494
653.75	0.0482742
663.393	0.0522172
673.035	0.0441161
682.677	0.0437337
692.319	0.034586
701.962	0.035225
711.604	0.0417062
721.246	0.0509264
730.889	0.0606307
740.531	0.0437471
750.173	0.0411797
759.816	0.0449265
769.458	0.0524828
779.101	0.0626231
788.743	0.0671708
798.385	0.0776061
808.028	0.0784615
817.67	0.0855721
827.312	0.0987129
836.955	0.115923
846.597	0.136062
856.239	0.162572
865.881	0.181998
875.524	0.17498
885.166	0.166785
894.808	0.160673
904.451	0.154576
914.093	0.146985
923.736	0.137877
933.378	0.136825
943.02	0.154277
952.663	0.161736
962.305	0.146263
971.947	0.134243
981.59	0.134607
991.232	0.136503
1000.87	0.13739
1010.52	0.140743
1020.16	0.137698
1029.8	0.135565
1039.44	0.12917
1049.09	0.124372
1058.73	0.114511
1068.37	0.10457
1078.01	0.101478
1087.65	0.0943261
1097.3	0.0755023
1106.94	0.0561057
1116.58	0.0423644
1126.22	0.0325475
1135.87	0.0278181
1145.51	0.0245455
1155.15	0.0221479
1164.79	0.0221592
1174.44	0.0194666
1184.08	0.017777
1193.72	0.0167763
1203.36	0.0152096
1213.01	0.0132066
1222.65	0.0119189
1232.29	0.0111028
1241.93	0.0112129
1251.58	0.0115764
1261.22	0.0119208
1270.86	0.012802
1280.5	0.0137197
1290.14	0.0148068
1299.79	0.0159047
1309.43	0.0171351
1319.07	0.0185185
1328.71	0.0204695
1338.36	0.0226332
1348	0.0253285
1357.64	0.0285668
1367.28	0.0324368
1376.92	0.0372977
1386.57	0.0421595
1396.21	0.0473422
1405.85	0.0513524
1415.49	0.0537546
1425.14	0.0543289
1434.78	0.0539961
1444.42	0.0524937
1454.06	0.0501906
1463.71	0.0472812
1473.35	0.0440879
1482.99	0.0407162
1492.63	0.036557
1502.28	0.0322267
1511.92	0.0277049
1521.56	0.023792
1531.2	0.0198031
1540.85	0.0169701
1550.49	0.0142431
1560.13	0.0122725
1569.77	0.0107846
1579.41	0.010253
1589.06	0.00992318
1598.7	0.00940819
1608.34	0.00937929
1617.98	0.00925595
1627.63	0.00891492
1637.27	0.00892763
1646.91	0.00867418
1656.55	0.00826094
1666.19	0.00792783
1675.84	0.00789574
1685.48	0.00776925
1695.12	0.00771648
1704.77	0.00762525
1714.41	0.00726482
1724.05	0.00705086
1733.69	0.00689576
1743.33	0.00636576
1752.98	0.00665475
1762.62	0.00665959
1772.26	0.00699025
1781.9	0.00710188
1791.55	0.00771853
1801.19	0.007837
1810.83	0.00756052
1820.47	0.00704047
1830.12	0.00673874
1839.76	0.00696581
1849.4	0.00722542
1859.04	0.0070688
1868.68	0.00697505
1878.33	0.00709391
1887.97	0.00664632
1897.61	0.00647608
1907.25	0.00673587
1916.9	0.0069147
1926.54	0.00685016
1936.18	0.00703175
1945.82	0.0063649
1955.46	0.00638157
1965.11	0.00623942
1974.75	0.00811437
1984.39	0.00896737
1994.04	0.00781884
2003.68	0.00774956
2013.32	0.00698782
2022.96	0.00732993
2032.6	0.00878536
2042.25	0.00890529
2051.89	0.00867856
2061.53	0.0072366
2071.17	0.00856254
2080.82	0.00775588
2090.46	0.0078674
2100.1	0.00802835
2109.74	0.00891475
2119.39	0.00826991
2129.03	0.00787255
2138.67	0.00744863
2148.31	0.00796954
2157.95	0.00908169
2167.6	0.010784
2177.24	0.011552
2186.88	0.0114917
2196.52	0.0109045
2206.17	0.012561
2215.81	0.0118774
2225.45	0.0127026
2235.09	0.0140347
2244.74	0.0136445
2254.38	0.0133749
2264.02	0.0142537
2273.66	0.0142749
2283.3	0.0141861
2292.95	0.0152419
2302.59	0.0137794
2312.23	0.0137763
2321.87	0.0148984
2331.52	0.0133207
2341.16	0.0132435
2350.8	0.0132698
2360.44	0.0137916
2370.09	0.0138743
2379.73	0.0139434
2389.37	0.014501
2399.01	0.0143696
2408.66	0.0148772
2418.3	0.0146191
2427.94	0.0145012
2437.58	0.0152765
2447.22	0.0156099
2456.87	0.0148981
2466.51	0.0160147
2476.15	0.0157516
2485.79	0.0157271
2495.44	0.0156836
2505.08	0.0149967
2514.72	0.0153765
2524.36	0.0159432
2534.01	0.0159591
2543.65	0.0163715
2553.29	0.016223
2562.93	0.0164619
2572.57	0.0167111
2582.22	0.0166897
2591.86	0.0166797
2601.5	0.0170145
2611.14	0.0171855
2620.79	0.0170784
2630.43	0.016836
2640.07	0.0176071
2649.71	0.0173753
2659.36	0.0170322
2669	0.0168864
2678.64	0.0169022
2688.28	0.0171713
2697.93	0.0172255
2707.57	0.017303
2717.21	0.0175872
2726.85	0.0177095
2736.49	0.017706
2746.14	0.0179383
2755.78	0.0177437
2765.42	0.018158
2775.06	0.0180982
2784.71	0.0183268
2794.35	0.0183665
2803.99	0.0187512
2813.63	0.0189562
2823.28	0.0188733
2832.92	0.0192837
2842.56	0.0193095
2852.2	0.0197429
2861.84	0.0195042
2871.49	0.0190751
2881.13	0.0196623
2890.77	0.0193595
2900.41	0.0204118
2910.06	0.0206013
2919.7	0.0211224
2929.34	0.0212666
2938.98	0.0201074
2948.62	0.0203463
2958.27	0.0197702
2967.91	0.0196601
2977.55	0.0203937
2987.2	0.0199912
2996.84	0.0195273
3006.48	0.0198299
3016.12	0.0195855
3025.76	0.0208343
3035.41	0.0205053
3045.05	0.020838
3054.69	0.0211945
3064.33	0.0214904
3073.98	0.0216871
3083.62	0.021818
3093.26	0.0213931
3102.9	0.0222391
3112.55	0.0223219
3122.19	0.0226332
3131.83	0.0226394
3141.47	0.0227226
3151.11	0.0234722
3160.76	0.0243645
3170.4	0.0234422
3180.04	0.0237517
3189.68	0.0233865
3199.33	0.0241777
3208.97	0.0242648
3218.61	0.0249063
3228.25	0.0248286
3237.9	0.0251681
3247.54	0.0251206
3257.18	0.0245283
3266.82	0.0260071
3276.47	0.02553
3286.11	0.0257308
3295.75	0.0254529
3305.39	0.0264083
3315.03	0.0261639
3324.68	0.025059
3334.32	0.0262291
3343.96	0.0254768
3353.6	0.0264232
3363.25	0.0260536
3372.89	0.0261278
3382.53	0.0256945
3392.17	0.0266109
3401.82	0.0264429
3411.46	0.0268507
3421.1	0.026803
3430.74	0.0280186
3440.39	0.0275987
3450.03	0.0264275
3459.67	0.0269346
3469.31	0.0273095
3478.95	0.0263601
3488.6	0.0260555
3498.24	0.0258097
3507.88	0.0262981
3517.52	0.0260346
3527.17	0.0261504
3536.81	0.0252063
3546.45	0.025604
3556.09	0.0249737
3565.74	0.024519
3575.38	0.0244194
3585.02	0.0244553
3594.66	0.0241903
3604.3	0.0242045
3613.95	0.024471
3623.59	0.0237979
3633.23	0.0234322
3642.87	0.0239568
3652.52	0.0235679
3662.16	0.0229911
3671.8	0.0238048
3681.44	0.023439
3691.09	0.0244293
3700.73	0.0241175
3710.37	0.0237768
3720.01	0.0234836
3729.66	0.0237508
3739.3	0.0238481
3748.94	0.0253043
3758.58	0.0247589
3768.22	0.0248713
3777.87	0.0243466
3787.51	0.0245096
3797.15	0.0243747
3806.79	0.0258598
3816.44	0.0257992
3826.08	0.0236319
3835.72	0.0259668
3845.36	0.0241979
3855.01	0.0260134
3864.65	0.025028
3874.29	0.0258136
3883.93	0.0254108
3893.57	0.0256741
3903.22	0.0255981
3912.86	0.0237282
3922.5	0.0260393
3932.14	0.0254237
3941.79	0.025009
3951.43	0.0257087
3961.07	0.0259043
3970.71	0.024916
3980.36	0.0258171
3990	0.0260244
3999.64	0.025934
