Measurement: Infrared, Infrared Data Processed
Mineral: Pyrosmalite-(Fe)
Rruff sample: R050158
Ideal chemistry: Fe^2+^_8_Si_6_O_15_(OH)_10_
Locality: Burguillos del Cerro, Badajos, Spain
Source: Jim McGlasson
Description: Green subhedral crystal aggregate
Measured chemistry: (Fe^2+^_0.92_Mn^2+^_0.06_Mg_0.02_)_8_Si_6_O_15_(OH_0.83_Cl_0.17_)_10_
x	intensity
50.1401	0.00664744
52.0686	0.00473271
53.9971	0.00468831
55.9255	0.010002
57.854	0.0136022
59.7825	0.0094962
61.7109	0.00896696
63.6394	0.0115765
65.5679	0.0125189
67.4963	0.0131324
69.4248	0.01427
71.3533	0.0154184
73.2817	0.0158509
75.2102	0.0154856
77.1387	0.0159944
79.0671	0.0171667
80.9956	0.018708
82.9241	0.0190263
84.8525	0.0197696
86.781	0.0204488
88.7095	0.0214771
90.6379	0.022016
92.5664	0.0217981
94.4948	0.0208692
96.4233	0.0215247
98.3518	0.023292
100.28	0.0246223
102.209	0.0259869
104.137	0.0276054
106.066	0.0292787
107.994	0.0317863
109.923	0.0354144
111.851	0.035685
113.779	0.0321324
115.708	0.030224
117.636	0.0302332
119.565	0.0312293
121.493	0.0328017
123.422	0.0343848
125.35	0.0356242
127.279	0.0366449
129.207	0.0374259
131.136	0.037745
133.064	0.0372664
134.993	0.0376954
136.921	0.0399963
138.85	0.0427823
140.778	0.0437785
142.707	0.0432275
144.635	0.0408715
146.563	0.0385046
148.492	0.0376781
150.42	0.0379982
152.349	0.0385781
154.277	0.0392174
156.206	0.0405492
158.134	0.0425784
160.063	0.0441156
161.991	0.045644
163.92	0.0474121
165.848	0.0492382
167.777	0.0505333
169.705	0.0510905
171.633	0.051355
173.562	0.0522837
175.49	0.0530085
177.419	0.0526842
179.347	0.052504
181.276	0.0534319
183.204	0.055024
185.133	0.057019
187.061	0.0586691
188.99	0.0591253
190.918	0.0593857
192.847	0.0598695
194.775	0.0595511
196.704	0.0589937
198.632	0.0586408
200.56	0.0584094
202.489	0.0579286
204.417	0.0563658
206.346	0.0554242
208.274	0.0549049
210.203	0.0544422
212.131	0.0548845
214.06	0.0563155
215.988	0.0581781
217.917	0.0598227
219.845	0.0610501
221.774	0.0618324
223.702	0.0623051
225.631	0.0629441
227.559	0.0638979
229.488	0.0641796
231.416	0.0647652
233.344	0.065826
235.273	0.066198
237.201	0.0656965
239.13	0.0647935
241.058	0.0634741
242.987	0.062456
244.915	0.062139
246.844	0.0623221
248.772	0.0625303
250.701	0.0632631
252.629	0.0649261
254.558	0.066522
256.486	0.06725
258.414	0.0683847
260.343	0.0698109
262.271	0.0712106
264.2	0.0723209
266.128	0.0727036
268.057	0.072332
269.985	0.0720951
271.914	0.0721616
273.842	0.0730963
275.771	0.0747191
277.699	0.0768084
279.628	0.0785992
281.556	0.0803051
283.485	0.0823129
285.413	0.0841415
287.341	0.0866057
289.27	0.0889568
291.198	0.0908874
293.127	0.0926201
295.055	0.0943157
296.984	0.0961084
298.912	0.0976537
300.841	0.0985942
302.769	0.0991786
304.698	0.0983268
306.626	0.0967105
308.555	0.0951042
310.483	0.0938867
312.411	0.0931618
314.34	0.0927465
316.269	0.0923279
318.197	0.0913113
320.125	0.0897978
322.054	0.0879829
323.982	0.086258
325.911	0.0849325
327.839	0.0838995
329.768	0.0828812
331.696	0.0824195
333.625	0.0823695
335.553	0.082344
337.482	0.0822683
339.41	0.0817863
341.339	0.0806145
343.267	0.0790028
345.195	0.0771134
347.124	0.0753995
349.052	0.0740875
350.981	0.0726673
352.909	0.0712633
354.838	0.0702388
356.766	0.0697128
358.695	0.0694957
360.623	0.0696423
362.552	0.0708723
364.48	0.0721895
366.409	0.0737172
368.337	0.0759508
370.265	0.0782223
372.194	0.0798698
374.122	0.0812316
376.051	0.0823302
377.979	0.0836103
379.908	0.0855348
381.836	0.0879001
383.765	0.0906082
385.693	0.0929699
387.622	0.0939141
389.55	0.0936471
391.479	0.0927092
393.407	0.0918781
395.336	0.0917785
397.264	0.0926893
399.192	0.0944145
401.121	0.0966364
403.049	0.0983772
404.978	0.0995957
406.906	0.100627
408.835	0.10129
410.763	0.101888
412.692	0.102429
414.62	0.102923
416.549	0.103671
418.477	0.104743
420.406	0.105934
422.334	0.107582
424.262	0.109544
426.191	0.111679
428.12	0.11381
430.048	0.115307
431.976	0.116092
433.905	0.115965
435.833	0.114361
437.762	0.111563
439.69	0.108129
441.619	0.104153
443.547	0.100037
445.476	0.0961209
447.404	0.0922383
449.333	0.0882621
451.261	0.0845391
453.19	0.0811574
455.118	0.0778545
457.046	0.0747522
458.975	0.0720514
460.903	0.0692177
462.832	0.0665528
464.76	0.0643302
466.689	0.0623105
468.617	0.0604991
470.546	0.0589303
472.474	0.0576199
474.403	0.0563291
476.331	0.0549668
478.26	0.053947
480.188	0.0529092
482.116	0.0519838
484.045	0.0516766
485.974	0.051749
487.902	0.05222
489.83	0.0531233
491.759	0.0542065
493.687	0.0559161
495.616	0.0577744
497.544	0.0603793
499.473	0.0639543
501.401	0.0682297
503.33	0.0727937
505.258	0.0777789
507.187	0.0824702
509.115	0.0858464
511.043	0.0866089
512.972	0.0839199
514.9	0.0781558
516.829	0.0721242
518.757	0.0670793
520.686	0.0626766
522.614	0.0595927
524.543	0.0582123
526.471	0.0576263
528.4	0.0580655
530.328	0.0589458
532.257	0.0605074
534.185	0.0616417
536.114	0.0616392
538.042	0.059968
539.971	0.056291
541.899	0.0522643
543.827	0.049043
545.756	0.0467722
547.684	0.0453117
549.613	0.0443119
551.541	0.0436781
553.47	0.0435515
555.398	0.0435527
557.327	0.0433304
559.255	0.0436148
561.184	0.0437816
563.112	0.0436013
565.041	0.0437212
566.969	0.0438306
568.898	0.0439541
570.826	0.0446536
572.755	0.0451278
574.683	0.0453367
576.611	0.0456746
578.54	0.0457179
580.468	0.0454056
582.397	0.0450824
584.325	0.044695
586.254	0.0449967
588.182	0.044999
590.111	0.0448652
592.039	0.0450931
593.968	0.0452889
595.896	0.0456762
597.824	0.0465075
599.753	0.0471801
601.682	0.047826
603.61	0.0483611
605.538	0.0494768
607.467	0.0506033
609.395	0.0520625
611.324	0.0534906
613.252	0.0549885
615.181	0.0564912
617.109	0.0585039
619.038	0.0605757
620.966	0.0622448
622.894	0.0640033
624.823	0.0667756
626.751	0.0702179
628.68	0.0740924
630.608	0.0774722
632.537	0.0808284
634.465	0.0841194
636.394	0.0877592
638.322	0.0916363
640.251	0.0951674
642.179	0.0976084
644.108	0.0984085
646.036	0.0977883
647.965	0.0970862
649.893	0.0969553
651.822	0.0977738
653.75	0.099515
655.678	0.102441
657.607	0.106145
659.535	0.110172
661.464	0.114241
663.392	0.118194
665.321	0.120218
667.249	0.119618
669.178	0.117125
671.106	0.113797
673.035	0.109687
674.963	0.104951
676.892	0.0990625
678.82	0.0922169
680.749	0.0848466
682.677	0.0787208
684.606	0.0742684
686.534	0.0712719
688.462	0.0694682
690.391	0.0682228
692.319	0.0686507
694.248	0.0713066
696.176	0.073316
698.105	0.0752566
700.033	0.0785532
