Measurement: Infrared, Infrared Data Processed
Mineral: Pyromorphite
Rruff sample: R050027
Ideal chemistry: Pb^2+^_5_(PO_4_)_3_Cl
Locality: Yangshuo, Guangxi Autonomous Region, China
Source: Eugene Schlepp
Description: Light green hexagonal prismatic hoppered single crystals
Measured chemistry: Pb_5.00_(P_1.00_O_4_)_3_Cl_1.00_
x	intensity
399.193	0.0476774
408.835	0.0685047
418.477	0.105136
428.12	0.123639
437.762	0.131193
447.404	0.136942
457.047	0.164333
466.689	0.196399
476.331	0.236516
485.974	0.282394
495.616	0.341503
505.258	0.417992
514.901	0.489376
524.543	0.555877
534.185	0.533902
543.828	0.285114
553.47	0.163839
563.112	0.33237
572.755	0.274465
582.397	0.0942899
592.039	0.0409005
601.682	0.0334446
611.324	0.0333803
620.966	0.0339801
630.609	0.0364914
640.251	0.0424552
649.893	0.0515077
659.536	0.0621357
669.178	0.0739747
678.82	0.0852013
688.463	0.0980693
698.105	0.111852
707.747	0.127821
717.39	0.145221
727.032	0.163869
736.674	0.184317
746.317	0.206692
755.959	0.229974
765.601	0.254171
775.244	0.280047
784.886	0.308982
794.528	0.332877
804.171	0.362944
813.813	0.391981
823.455	0.420812
833.098	0.455918
842.74	0.491671
852.382	0.529293
862.025	0.564925
871.667	0.602092
881.309	0.642596
890.952	0.683298
900.594	0.727029
910.236	0.772793
919.879	0.815265
929.521	0.779919
939.163	0.840408
948.806	0.827427
958.448	0.719228
968.09	0.562022
977.733	0.457828
987.375	0.419756
997.017	0.441462
1006.66	0.457573
1016.3	0.451905
1025.94	0.375787
1035.59	0.284975
1045.23	0.218632
1054.87	0.168165
1064.51	0.125105
1074.16	0.0880585
1083.8	0.0640351
1093.44	0.0476118
1103.08	0.0369571
1112.72	0.0303789
1122.37	0.0246893
1132.01	0.0202631
1141.65	0.0171775
1151.3	0.0152892
1160.94	0.0134124
1170.58	0.0124807
1180.22	0.0122716
1189.86	0.0114047
1199.51	0.0118448
1209.15	0.0121358
1218.79	0.0122018
1228.43	0.0126834
1238.08	0.0133155
1247.72	0.0144461
1257.36	0.0151351
1267	0.0160824
1276.64	0.0180664
1286.29	0.0191049
1295.93	0.0214738
1305.57	0.0244814
1315.21	0.0271644
1324.86	0.0279151
1334.5	0.0289528
1344.14	0.0296617
1353.78	0.0301294
1363.43	0.0315426
1373.07	0.0331533
1382.71	0.0343402
1392.35	0.0361651
1401.99	0.0376038
1411.64	0.0394312
1421.28	0.0400842
1430.92	0.0407286
1440.57	0.0419754
1450.21	0.0421153
1459.85	0.0427594
1469.49	0.0427346
1479.13	0.0428023
1488.78	0.0436063
1498.42	0.0449828
1508.06	0.0455301
1517.7	0.04758
1527.35	0.049296
1536.99	0.0504175
1546.63	0.0517781
1556.27	0.0523512
1565.91	0.0538665
1575.56	0.0535549
1585.2	0.0549545
1594.84	0.0556795
1604.48	0.0568183
1614.13	0.0579418
1623.77	0.0592781
1633.41	0.0603499
1643.05	0.0617776
1652.7	0.0620704
1662.34	0.063947
1671.98	0.0645983
1681.62	0.0652039
1691.27	0.0668001
1700.91	0.0671245
1710.55	0.0682907
1720.19	0.0699052
1729.84	0.070402
1739.48	0.0702004
1749.12	0.0708693
1758.76	0.0724139
1768.4	0.0737928
1778.05	0.075326
1787.69	0.076308
1797.33	0.0781083
1806.97	0.0795099
1816.62	0.0809688
1826.26	0.0838588
1835.9	0.0891802
1845.54	0.0869926
1855.18	0.0887314
1864.83	0.0906804
1874.47	0.0911692
1884.11	0.0908246
1893.75	0.0923502
1903.4	0.0941339
1913.04	0.0958144
1922.68	0.0959622
1932.32	0.0953842
1941.97	0.0941199
1951.61	0.0946533
1961.25	0.0951436
1970.89	0.0914804
1980.54	0.0958349
1990.18	0.0956321
1999.82	0.0949325
2009.46	0.0947536
2019.11	0.0931486
2028.75	0.0982005
2038.39	0.0957243
2048.03	0.101273
2057.67	0.102632
2067.32	0.102002
2076.96	0.107654
2086.6	0.107379
2096.24	0.107444
2105.89	0.109427
2115.53	0.108581
2125.17	0.111513
2134.81	0.109284
2144.45	0.112415
2154.1	0.11005
2163.74	0.122267
2173.38	0.117957
2183.02	0.121949
2192.67	0.12428
2202.31	0.124402
2211.95	0.125261
2221.59	0.127459
2231.24	0.126428
2240.88	0.129933
2250.52	0.129595
2260.16	0.130842
2269.8	0.131683
2279.45	0.133227
2289.09	0.134008
2298.73	0.133754
2308.38	0.135872
2318.02	0.137069
2327.66	0.1377
2337.3	0.137807
2346.94	0.138403
2356.59	0.13981
2366.23	0.13999
2375.87	0.140387
2385.51	0.141957
2395.16	0.142551
2404.8	0.144052
2414.44	0.144713
2424.08	0.145973
2433.72	0.14705
2443.37	0.149441
2453.01	0.1502
2462.65	0.150299
2472.29	0.150217
2481.94	0.152285
2491.58	0.152086
2501.22	0.155112
2510.86	0.154876
2520.51	0.154956
2530.15	0.158072
2539.79	0.15932
2549.43	0.159837
2559.07	0.160708
2568.72	0.161913
2578.36	0.16224
2588	0.162269
2597.64	0.163077
2607.29	0.164743
2616.93	0.166624
2626.57	0.16543
2636.21	0.16756
2645.86	0.168715
2655.5	0.167742
2665.14	0.16865
2674.78	0.170592
2684.43	0.169625
2694.07	0.170704
2703.71	0.172064
2713.35	0.172607
2722.99	0.174627
2732.64	0.175957
2742.28	0.175583
2751.92	0.17744
2761.56	0.178801
2771.21	0.180287
2780.85	0.182171
2790.49	0.180905
2800.13	0.183728
2809.78	0.184542
2819.42	0.184883
2829.06	0.187019
2838.7	0.188973
2848.34	0.189302
2857.99	0.190394
2867.63	0.190654
2877.27	0.193088
2886.91	0.194567
2896.56	0.196088
2906.2	0.197664
2915.84	0.196732
2925.48	0.199364
2935.13	0.199175
2944.77	0.198992
2954.41	0.20083
2964.05	0.20154
2973.7	0.201309
2983.34	0.202857
2992.98	0.202413
3002.62	0.203252
3012.26	0.202941
3021.91	0.205448
3031.55	0.204815
3041.19	0.206647
3050.83	0.20779
3060.48	0.208678
3070.12	0.211352
3079.76	0.211037
3089.4	0.212288
3099.05	0.214035
3108.69	0.214073
3118.33	0.216072
3127.97	0.216963
3137.61	0.219043
3147.26	0.21989
3156.9	0.222444
3166.54	0.223788
3176.18	0.2212
3185.83	0.223772
3195.47	0.226215
3205.11	0.224962
3214.75	0.226853
3224.4	0.228924
3234.04	0.229252
3243.68	0.229626
3253.32	0.231705
3262.97	0.234243
3272.61	0.234783
3282.25	0.236489
3291.89	0.235617
3301.53	0.238225
3311.18	0.237646
3320.82	0.241038
3330.46	0.24082
3340.1	0.241291
3349.75	0.241556
3359.39	0.244457
3369.03	0.246578
3378.67	0.245871
3388.32	0.247798
3397.96	0.246527
3407.6	0.246593
3417.24	0.249852
3426.89	0.250981
3436.53	0.251553
3446.17	0.250642
3455.81	0.252184
3465.45	0.252991
3475.1	0.253811
3484.74	0.255475
3494.38	0.257336
3504.02	0.257832
3513.67	0.258705
3523.31	0.254685
3532.95	0.257272
3542.59	0.260862
3552.24	0.259286
3561.88	0.259732
3571.52	0.263796
3581.16	0.262425
3590.8	0.263436
3600.45	0.265824
3610.09	0.265661
3619.73	0.266789
3629.37	0.265009
3639.02	0.26593
3648.66	0.269876
3658.3	0.270067
3667.94	0.267014
3677.59	0.273113
3687.23	0.274656
3696.87	0.277947
3706.51	0.272351
3716.16	0.280599
3725.8	0.279796
3735.44	0.275931
3745.08	0.28539
3754.72	0.281941
3764.37	0.284856
3774.01	0.284952
3783.65	0.29157
3793.29	0.290044
3802.94	0.291878
3812.58	0.290732
3822.22	0.293947
3831.86	0.291846
3841.51	0.297046
3851.15	0.29303
3860.79	0.294517
3870.43	0.293429
3880.07	0.300979
3889.72	0.306986
3899.36	0.300476
3909	0.299687
3918.64	0.30441
3928.29	0.304614
3937.93	0.303769
3947.57	0.307084
3957.21	0.310373
3966.86	0.312728
3976.5	0.314261
3986.14	0.314309
3995.78	0.315016
