Measurement: Infrared, Infrared Data Processed
Mineral: Quartz
Rruff sample: R050125
Ideal chemistry: SiO_2_
Locality: Linopolis, Minas Gerais, Brazil
Source: Carlos and Paulo Vasconcelos
Description: Pale pink group of single crystals, variety rose quartz
Measured chemistry: Si_1.00_O_2_
x	intensity
399.193	0.12978
408.835	0.0651518
418.477	0.124176
428.12	0.167516
437.762	0.206364
447.404	0.230184
457.047	0.232406
466.689	0.198199
476.331	0.160321
485.974	0.13164
495.616	0.104561
505.258	0.0713574
514.901	0.0705169
524.543	0.0626681
534.185	0.0434042
543.828	0.0219057
553.47	0.0114252
563.112	0.00965121
572.755	0.00903024
582.397	0.0098761
592.039	0.0120436
601.682	0.0138906
611.324	0.015911
620.966	0.0177142
630.609	0.0177769
640.251	0.0207775
649.893	0.024005
659.536	0.0259465
669.178	0.0302241
678.82	0.0375094
688.463	0.0582626
698.105	0.0628372
707.747	0.0355937
717.39	0.0361869
727.032	0.0419539
736.674	0.0507846
746.317	0.0643798
755.959	0.0878047
765.601	0.125737
775.244	0.171518
784.886	0.144424
794.528	0.147181
804.171	0.0894647
813.813	0.0317551
823.455	0.0213818
833.098	0.0200271
842.74	0.0218979
852.382	0.0241897
862.025	0.0285534
871.667	0.0333255
881.309	0.038603
890.952	0.0453551
900.594	0.0529412
910.236	0.0620595
919.879	0.0730232
929.521	0.0849136
939.163	0.0978082
948.806	0.111798
958.448	0.126789
968.09	0.14281
977.733	0.159271
987.375	0.176814
997.017	0.193877
1006.66	0.211216
1016.3	0.229454
1025.94	0.246271
1035.59	0.261831
1045.23	0.273156
1054.87	0.28075
1064.51	0.269973
1074.16	0.263691
1083.8	0.259507
1093.44	0.23908
1103.08	0.212415
1112.72	0.189654
1122.37	0.168756
1132.01	0.148278
1141.65	0.131279
1151.3	0.116002
1160.94	0.122961
1170.58	0.105932
1180.22	0.0804875
1189.86	0.0634031
1199.51	0.0505125
1209.15	0.0378838
1218.79	0.0261809
1228.43	0.0192689
1238.08	0.0164392
1247.72	0.0139409
1257.36	0.0120153
1267	0.0104726
1276.64	0.00899052
1286.29	0.00741272
1295.93	0.00547307
1305.57	0.00408849
1315.21	0.00366098
1324.86	0.00302111
1334.5	0.00278465
1344.14	0.00242793
1353.78	0.00219316
1363.43	0.00296705
1373.07	0.00299626
1382.71	0.00290084
1392.35	0.00198957
1401.99	0.00171721
1411.64	0.00134033
1421.28	0.0015357
1430.92	0.00251707
1440.57	0.00355855
1450.21	0.00487671
1459.85	0.00563006
1469.49	0.00429859
1479.13	0.00254429
1488.78	0.00221451
1498.42	0.00196285
1508.06	0.00219133
1517.7	0.00164383
1527.35	0.00157938
1536.99	0.00111107
1546.63	0.000409669
1556.27	0.00101152
1565.91	0.000354603
1575.56	0.00134588
1585.2	0.00112088
1594.84	0.00171995
1604.48	0.00232884
1614.13	0.00269975
1623.77	0.00259322
1633.41	0.00216865
1643.05	0.00139369
1652.7	0.00261479
1662.34	0.00173079
1671.98	0.00227142
1681.62	0.00281678
1691.27	0.00343284
1700.91	0.00441332
1710.55	0.00459458
1720.19	0.0092867
1729.84	0.0186625
1739.48	0.014673
1749.12	0.00420098
1758.76	0.000834051
1768.4	0.000865834
1778.05	0.000591044
1787.69	0.00116205
1797.33	0.00103512
1806.97	0.000713793
1816.62	0.00030006
1826.26	0.000307758
1835.9	-0.000137796
1845.54	0.00124575
1855.18	0.00127953
1864.83	0.00240025
1874.47	0.00132136
1884.11	0.00211782
1893.75	0.000607685
1903.4	0.000263556
1913.04	-0.000296308
1922.68	-0.000695671
1932.32	-0.000498908
1941.97	-0.000449276
1951.61	-0.000268788
1961.25	0.00233608
1970.89	-0.00122574
1980.54	0.00213887
1990.18	0.000402268
1999.82	0.000287644
2009.46	0.000835234
2019.11	-0.000261852
2028.75	0.00121668
2038.39	5.01499e-05
2048.03	0.000875476
2057.67	0.000123813
2067.32	-0.00121127
2076.96	-0.000420035
2086.6	-0.000894436
2096.24	-0.00131447
2105.89	-0.00180536
2115.53	-0.00137759
2125.17	-0.0010479
2134.81	-0.00120029
2144.45	-0.00177232
2154.1	-0.00245711
2163.74	-0.000139673
2173.38	-0.000544195
2183.02	0.000119692
2192.67	-0.00193881
2202.31	-0.000941735
2211.95	-0.00118275
2221.59	0.000671459
2231.24	0.000292377
2240.88	-0.000120938
2250.52	-0.000282859
2260.16	-5.32484e-05
2269.8	0.000785191
2279.45	0.000762762
2289.09	0.00134422
2298.73	9.39997e-06
2308.38	0.000703055
2318.02	0.000801341
2327.66	0.000458155
2337.3	0.000864374
2346.94	0.000412672
2356.59	0.000806105
2366.23	0.000924415
2375.87	8.75509e-06
2385.51	0.000594941
2395.16	0.000850205
2404.8	0.000315435
2414.44	0.00114193
2424.08	0.00102727
2433.72	0.0014387
2443.37	0.00207567
2453.01	0.00214492
2462.65	0.00267206
2472.29	0.00246064
2481.94	0.00227335
2491.58	0.00194439
2501.22	0.00258147
2510.86	0.00208762
2520.51	0.00270352
2530.15	0.00331228
2539.79	0.00295235
2549.43	0.00320261
2559.07	0.00246908
2568.72	0.00331489
2578.36	0.00370031
2588	0.00377758
2597.64	0.00385637
2607.29	0.00309094
2616.93	0.00334171
2626.57	0.00395838
2636.21	0.0035348
2645.86	0.00367318
2655.5	0.0037416
2665.14	0.00315468
2674.78	0.00310288
2684.43	0.00263177
2694.07	0.00300287
2703.71	0.00292351
2713.35	0.00303162
2722.99	0.00302093
2732.64	0.00321316
2742.28	0.00291925
2751.92	0.00290272
2761.56	0.00332597
2771.21	0.00361881
2780.85	0.00336766
2790.49	0.00356729
2800.13	0.00356594
2809.78	0.00370932
2819.42	0.00412944
2829.06	0.00446894
2838.7	0.00594498
2848.34	0.00822836
2857.99	0.00912313
2867.63	0.0110048
2877.27	0.0109154
2886.91	0.00914984
2896.56	0.0103452
2906.2	0.0124767
2915.84	0.013962
2925.48	0.0153162
2935.13	0.0146534
2944.77	0.0136899
2954.41	0.0190312
2964.05	0.015772
2973.7	0.00940936
2983.34	0.00576348
2992.98	0.00467232
3002.62	0.00410737
3012.26	0.0023329
3021.91	0.00298171
3031.55	0.00309196
3041.19	0.00223597
3050.83	0.00252232
3060.48	0.00324588
3070.12	0.00338376
3079.76	0.00287017
3089.4	0.00308224
3099.05	0.00223637
3108.69	0.00363435
3118.33	0.00333351
3127.97	0.00253449
3137.61	0.00231202
3147.26	0.00310797
3156.9	0.00274893
3166.54	0.00328199
3176.18	0.00258994
3185.83	0.0034754
3195.47	0.00287437
3205.11	0.00246266
3214.75	0.0031496
3224.4	0.00321044
3234.04	0.00201157
3243.68	0.00301887
3253.32	0.00426742
3262.97	0.00255792
3272.61	0.00333455
3282.25	0.00401984
3291.89	0.00459441
3301.53	0.00377575
3311.18	0.00273548
3320.82	0.00344763
3330.46	0.00242789
3340.1	0.00292155
3349.75	0.00362859
3359.39	0.00440239
3369.03	0.00311103
3378.67	0.00333808
3388.32	0.00284678
3397.96	0.00202627
3407.6	0.00416883
3417.24	0.00363768
3426.89	0.0031525
3436.53	0.00359929
3446.17	0.00283259
3455.81	0.00171124
3465.45	0.00294469
3475.1	0.00197127
3484.74	0.00263452
3494.38	0.00196225
3504.02	0.00322164
3513.67	0.00282042
3523.31	0.00341497
3532.95	0.00211764
3542.59	0.00223467
3552.24	0.00308618
3561.88	0.00350737
3571.52	0.00240754
3581.16	0.00263958
3590.8	0.00192969
3600.45	0.00293011
3610.09	0.00362845
3619.73	0.00369086
3629.37	0.00301894
3639.02	0.00128227
3648.66	0.00354357
3658.3	0.0021885
3667.94	0.00283656
3677.59	0.00385149
3687.23	0.00265964
3696.87	0.00262055
3706.51	0.00394593
3716.16	0.00301133
3725.8	0.00363046
3735.44	0.00466427
3745.08	0.00526655
3754.72	0.00238277
3764.37	0.00493181
3774.01	0.00305507
3783.65	0.00303795
3793.29	0.00473573
3802.94	0.00429301
3812.58	0.00414368
3822.22	0.00410987
3831.86	0.00153252
3841.51	0.00349876
3851.15	0.00352128
3860.79	0.00202917
3870.43	0.00208747
3880.07	0.00304982
3889.72	0.00352665
3899.36	0.00403092
3909	0.002977
3918.64	0.00169703
3928.29	0.00257661
3937.93	0.00272959
3947.57	0.00291542
3957.21	0.003914
3966.86	0.00348721
3976.5	0.00378176
3986.14	0.00317114
3995.78	0.00261342
