Measurement: Infrared, Infrared Data Processed
Mineral: Ramsdellite
Rruff sample: R050552
Ideal chemistry: Mn^4+^O_2_
Locality: Lake Valley, Sierra County, New Mexico, USA
Source: Dave Bunk Minerals
Description: Black bladed crystals
Measured chemistry: (Mn^4+^_0.98_Al_0.02_)_Σ=1_(O_1.98_(OH)_0.02_)_Σ=2_
x	intensity
399.193	0.426176
408.835	0.417355
418.477	0.411342
428.12	0.431032
437.762	0.446203
447.404	0.457753
457.047	0.478044
466.689	0.472147
476.331	0.478664
485.974	0.482302
495.616	0.484891
505.258	0.48184
514.901	0.455547
524.543	0.424742
534.185	0.417335
543.828	0.424258
553.47	0.418671
563.112	0.399112
572.755	0.388013
582.397	0.375645
592.039	0.365225
601.682	0.341655
611.324	0.324366
620.966	0.311664
630.609	0.310607
640.251	0.310558
649.893	0.304973
659.536	0.300624
669.178	0.299625
678.82	0.296953
688.463	0.290888
698.105	0.277792
707.747	0.259221
717.39	0.239562
727.032	0.22328
736.674	0.210802
746.317	0.200414
755.959	0.193057
765.601	0.188421
775.244	0.185297
784.886	0.183895
794.528	0.179285
804.171	0.172669
813.813	0.172096
823.455	0.178757
833.098	0.187881
842.74	0.198148
852.382	0.20882
862.025	0.219468
871.667	0.236828
881.309	0.24038
890.952	0.245875
900.594	0.25684
910.236	0.268213
919.879	0.277456
929.521	0.286723
939.163	0.296137
948.806	0.305997
958.448	0.316442
968.09	0.32402
977.733	0.331548
987.375	0.339156
997.017	0.347067
1006.66	0.355207
1016.3	0.363975
1025.94	0.373013
1035.59	0.383295
1045.23	0.393596
1054.87	0.404405
1064.51	0.41516
1074.16	0.428006
1083.8	0.439558
1093.44	0.443315
1103.08	0.441731
1112.72	0.440244
1122.37	0.440351
1132.01	0.443247
1141.65	0.451891
1151.3	0.46013
1160.94	0.459435
1170.58	0.451457
1180.22	0.442784
1189.86	0.44102
1199.51	0.444709
1209.15	0.450247
1218.79	0.4574
1228.43	0.46598
1238.08	0.474069
1247.72	0.482991
1257.36	0.491119
1267	0.500327
1276.64	0.508431
1286.29	0.514168
1295.93	0.521475
1305.57	0.529055
1315.21	0.536134
1324.86	0.543377
1334.5	0.550238
1344.14	0.557571
1353.78	0.565468
1363.43	0.574167
1373.07	0.585874
1382.71	0.596636
1392.35	0.60936
1401.99	0.619128
1411.64	0.627332
1421.28	0.628535
1430.92	0.62683
1440.57	0.622624
1450.21	0.618831
1459.85	0.613244
1469.49	0.608214
1479.13	0.608599
1488.78	0.611116
1498.42	0.614962
1508.06	0.620121
1517.7	0.625431
1527.35	0.631121
1536.99	0.636138
1546.63	0.639607
1556.27	0.642419
1565.91	0.646105
1575.56	0.64927
1585.2	0.652349
1594.84	0.65733
1604.48	0.660284
1614.13	0.663921
1623.77	0.667637
1633.41	0.671475
1643.05	0.673566
1652.7	0.677061
1662.34	0.677941
1671.98	0.680032
1681.62	0.683708
1691.27	0.689389
1700.91	0.696179
1710.55	0.700957
1720.19	0.706341
1729.84	0.708617
1739.48	0.705445
1749.12	0.709143
1758.76	0.716921
1768.4	0.723586
1778.05	0.72861
1787.69	0.733571
1797.33	0.738067
1806.97	0.740382
1816.62	0.744406
1826.26	0.747371
1835.9	0.752167
1845.54	0.755742
1855.18	0.761406
1864.83	0.761144
1874.47	0.766488
1884.11	0.771737
1893.75	0.772309
1903.4	0.776927
1913.04	0.775545
1922.68	0.778005
1932.32	0.77795
1941.97	0.779304
1951.61	0.775808
1961.25	0.771186
1970.89	0.769355
1980.54	0.768622
1990.18	0.7771
1999.82	0.773506
2009.46	0.778312
2019.11	0.771554
2028.75	0.774662
2038.39	0.780804
2048.03	0.78709
2057.67	0.798674
2067.32	0.801932
2076.96	0.803299
2086.6	0.806251
2096.24	0.811172
2105.89	0.808272
2115.53	0.8101
2125.17	0.811882
2134.81	0.814924
2144.45	0.801565
2154.1	0.794572
2163.74	0.807765
2173.38	0.813401
2183.02	0.818768
2192.67	0.83324
2202.31	0.83547
2211.95	0.837704
2221.59	0.847335
2231.24	0.853521
2240.88	0.856611
2250.52	0.862834
2260.16	0.869394
2269.8	0.878038
2279.45	0.880255
2289.09	0.893041
2298.73	0.895745
2308.38	0.903011
2318.02	0.907403
2327.66	0.912611
2337.3	0.918054
2346.94	0.918766
2356.59	0.92313
2366.23	0.927608
2375.87	0.927592
2385.51	0.933163
2395.16	0.933357
2404.8	0.936894
2414.44	0.943125
2424.08	0.944996
2433.72	0.950416
2443.37	0.952956
2453.01	0.957218
2462.65	0.961252
2472.29	0.964275
2481.94	0.969233
2491.58	0.972572
2501.22	0.976788
2510.86	0.982809
2520.51	0.985998
2530.15	0.986908
2539.79	0.988359
2549.43	0.991389
2559.07	0.997432
2568.72	0.999034
2578.36	1.00209
2588	1.00592
2597.64	1.00809
2607.29	1.0127
2616.93	1.01449
2626.57	1.0179
2636.21	1.02399
2645.86	1.02598
2655.5	1.0288
2665.14	1.03168
2674.78	1.03205
2684.43	1.03635
2694.07	1.03965
2703.71	1.04049
2713.35	1.0425
2722.99	1.04581
2732.64	1.04608
2742.28	1.049
2751.92	1.05246
2761.56	1.05464
2771.21	1.05624
2780.85	1.06119
2790.49	1.06183
2800.13	1.06686
2809.78	1.07365
2819.42	1.07287
2829.06	1.07557
2838.7	1.08309
2848.34	1.08194
2857.99	1.08393
2867.63	1.0867
2877.27	1.09097
2886.91	1.0951
2896.56	1.09802
2906.2	1.10162
2915.84	1.10345
2925.48	1.10373
2935.13	1.09709
2944.77	1.10197
2954.41	1.10285
2964.05	1.10277
2973.7	1.10453
2983.34	1.11015
2992.98	1.10849
3002.62	1.11585
3012.26	1.11807
3021.91	1.12163
3031.55	1.1228
3041.19	1.12594
3050.83	1.13184
3060.48	1.12773
3070.12	1.13367
3079.76	1.13725
3089.4	1.14341
3099.05	1.14504
3108.69	1.1517
3118.33	1.15117
3127.97	1.15331
3137.61	1.15612
3147.26	1.16114
3156.9	1.16604
3166.54	1.16096
3176.18	1.17175
3185.83	1.1698
3195.47	1.17367
3205.11	1.17845
3214.75	1.18129
3224.4	1.19119
3234.04	1.18974
3243.68	1.19655
3253.32	1.19728
3262.97	1.20107
3272.61	1.2044
3282.25	1.20821
3291.89	1.21586
3301.53	1.22135
3311.18	1.22382
3320.82	1.23323
3330.46	1.24716
3340.1	1.25439
3349.75	1.26329
3359.39	1.27985
3369.03	1.29386
3378.67	1.30683
3388.32	1.29906
3397.96	1.25407
3407.6	1.20064
3417.24	1.17756
3426.89	1.16791
3436.53	1.16873
3446.17	1.16695
3455.81	1.16714
3465.45	1.1731
3475.1	1.17329
3484.74	1.17305
3494.38	1.1818
3504.02	1.18285
3513.67	1.18637
3523.31	1.18569
3532.95	1.19441
3542.59	1.18993
3552.24	1.19786
3561.88	1.19974
3571.52	1.20122
3581.16	1.20327
3590.8	1.20553
3600.45	1.20992
3610.09	1.21829
3619.73	1.21398
3629.37	1.21479
3639.02	1.22809
3648.66	1.22861
3658.3	1.23493
3667.94	1.23709
3677.59	1.24214
3687.23	1.2483
3696.87	1.24985
3706.51	1.25119
3716.16	1.25825
3725.8	1.26275
3735.44	1.26987
3745.08	1.26836
3754.72	1.27411
3764.37	1.2796
3774.01	1.27567
3783.65	1.28581
3793.29	1.28572
3802.94	1.29097
3812.58	1.29936
3822.22	1.29237
3831.86	1.31212
3841.51	1.31186
3851.15	1.3098
3860.79	1.31359
3870.43	1.31413
3880.07	1.32916
3889.72	1.32192
3899.36	1.3223
3909	1.3355
3918.64	1.33275
3928.29	1.33905
3937.93	1.33422
3947.57	1.34601
3957.21	1.35444
3966.86	1.35838
3976.5	1.35894
3986.14	1.3562
3995.78	1.37054
