Measurement: Infrared, Infrared Data Processed
Mineral: Renierite
Rruff sample: R050428
Ideal chemistry: (Cu^1+^,Cu^2+^Zn^2+^)_11_(Fe^2+^,Fe^3+^)_4_(Ge^4+^,As^5+^)_2_S^2-^_16_
Locality: Tsumeb mine, Tsumeb, Otavi District, Oshikoto, Namibia
Source: University of Arizona Mineral Museum
Description: Reddish bronze metallic massive, associated with siderite.
Measured chemistry: (Cu_10.73_Zn_0.28_)_Σ=11_Fe_4.00_(Ge_1.35_As_0.65_)_Σ=2_S_16.00_
x	intensity
399.193	0.181245
408.835	0.185259
418.477	0.196374
428.12	0.212575
437.762	0.214963
447.404	0.225953
457.047	0.231191
466.689	0.229456
476.331	0.234825
485.974	0.239157
495.616	0.241431
505.258	0.246538
514.901	0.250724
524.543	0.254127
534.185	0.258905
543.828	0.259111
553.47	0.263792
563.112	0.265719
572.755	0.27027
582.397	0.272469
592.039	0.277041
601.682	0.278626
611.324	0.276592
620.966	0.27963
630.609	0.281593
640.251	0.283755
649.893	0.285751
659.536	0.288949
669.178	0.288334
678.82	0.291032
688.463	0.293961
698.105	0.297762
707.747	0.301511
717.39	0.30106
727.032	0.30303
736.674	0.306056
746.317	0.309005
755.959	0.309663
765.601	0.312893
775.244	0.315957
784.886	0.317534
794.528	0.319001
804.171	0.321441
813.813	0.324107
823.455	0.326033
833.098	0.328566
842.74	0.330769
852.382	0.332505
862.025	0.337495
871.667	0.343189
881.309	0.33726
890.952	0.336357
900.594	0.340055
910.236	0.342947
919.879	0.345725
929.521	0.34907
939.163	0.351786
948.806	0.354329
958.448	0.357727
968.09	0.360197
977.733	0.363558
987.375	0.364967
997.017	0.368287
1006.66	0.370846
1016.3	0.373482
1025.94	0.376741
1035.59	0.379308
1045.23	0.38142
1054.87	0.38255
1064.51	0.383583
1074.16	0.386235
1083.8	0.388599
1093.44	0.389086
1103.08	0.387213
1112.72	0.388847
1122.37	0.386357
1132.01	0.386553
1141.65	0.388601
1151.3	0.387228
1160.94	0.381688
1170.58	0.377076
1180.22	0.372867
1189.86	0.369408
1199.51	0.367351
1209.15	0.3664
1218.79	0.365079
1228.43	0.365026
1238.08	0.367172
1247.72	0.370285
1257.36	0.373365
1267	0.37642
1276.64	0.380192
1286.29	0.383904
1295.93	0.387307
1305.57	0.39038
1315.21	0.39295
1324.86	0.39546
1334.5	0.398708
1344.14	0.401792
1353.78	0.405042
1363.43	0.408194
1373.07	0.411386
1382.71	0.414627
1392.35	0.418175
1401.99	0.420427
1411.64	0.422069
1421.28	0.421814
1430.92	0.420843
1440.57	0.419572
1450.21	0.417834
1459.85	0.416092
1469.49	0.414673
1479.13	0.41398
1488.78	0.412771
1498.42	0.412572
1508.06	0.412648
1517.7	0.41249
1527.35	0.413147
1536.99	0.414092
1546.63	0.414075
1556.27	0.41508
1565.91	0.416707
1575.56	0.418057
1585.2	0.420425
1594.84	0.421192
1604.48	0.423399
1614.13	0.424161
1623.77	0.423834
1633.41	0.423499
1643.05	0.424839
1652.7	0.424576
1662.34	0.424908
1671.98	0.426126
1681.62	0.426444
1691.27	0.42766
1700.91	0.428485
1710.55	0.430056
1720.19	0.431123
1729.84	0.432759
1739.48	0.433506
1749.12	0.433421
1758.76	0.436086
1768.4	0.436596
1778.05	0.438359
1787.69	0.439187
1797.33	0.438306
1806.97	0.437841
1816.62	0.43888
1826.26	0.439201
1835.9	0.440612
1845.54	0.440629
1855.18	0.43957
1864.83	0.440011
1874.47	0.440722
1884.11	0.441431
1893.75	0.441075
1903.4	0.440822
1913.04	0.440486
1922.68	0.441171
1932.32	0.441667
1941.97	0.436294
1951.61	0.429989
1961.25	0.432368
1970.89	0.427676
1980.54	0.428466
1990.18	0.433872
1999.82	0.434642
2009.46	0.428163
2019.11	0.431872
2028.75	0.433891
2038.39	0.433359
2048.03	0.440855
2057.67	0.444637
2067.32	0.447391
2076.96	0.454173
2086.6	0.456015
2096.24	0.456683
2105.89	0.45738
2115.53	0.458025
2125.17	0.455284
2134.81	0.448232
2144.45	0.449371
2154.1	0.438479
2163.74	0.440094
2173.38	0.4448
2183.02	0.447014
2192.67	0.44922
2202.31	0.452878
2211.95	0.45695
2221.59	0.459709
2231.24	0.464578
2240.88	0.46416
2250.52	0.467393
2260.16	0.470616
2269.8	0.472588
2279.45	0.47377
2289.09	0.48018
2298.73	0.481528
2308.38	0.484445
2318.02	0.486003
2327.66	0.488871
2337.3	0.488703
2346.94	0.489725
2356.59	0.490176
2366.23	0.489945
2375.87	0.489035
2385.51	0.490734
2395.16	0.488709
2404.8	0.49057
2414.44	0.492343
2424.08	0.493111
2433.72	0.492391
2443.37	0.492026
2453.01	0.494539
2462.65	0.494694
2472.29	0.495186
2481.94	0.495602
2491.58	0.49633
2501.22	0.496837
2510.86	0.498701
2520.51	0.500104
2530.15	0.499095
2539.79	0.499648
2549.43	0.500515
2559.07	0.501693
2568.72	0.503384
2578.36	0.502232
2588	0.503116
2597.64	0.506604
2607.29	0.506834
2616.93	0.509652
2626.57	0.511771
2636.21	0.513013
2645.86	0.514112
2655.5	0.516197
2665.14	0.516951
2674.78	0.517724
2684.43	0.519111
2694.07	0.520478
2703.71	0.521476
2713.35	0.520196
2722.99	0.522639
2732.64	0.522422
2742.28	0.522695
2751.92	0.524546
2761.56	0.52418
2771.21	0.525221
2780.85	0.525782
2790.49	0.524836
2800.13	0.527085
2809.78	0.528738
2819.42	0.529016
2829.06	0.528551
2838.7	0.528725
2848.34	0.528992
2857.99	0.52939
2867.63	0.53219
2877.27	0.533857
2886.91	0.532587
2896.56	0.533419
2906.2	0.535301
2915.84	0.53294
2925.48	0.532156
2935.13	0.534312
2944.77	0.533347
2954.41	0.536481
2964.05	0.535647
2973.7	0.536439
2983.34	0.535572
2992.98	0.537898
3002.62	0.537797
3012.26	0.538257
3021.91	0.5408
3031.55	0.539638
3041.19	0.540373
3050.83	0.541689
3060.48	0.53857
3070.12	0.541323
3079.76	0.541536
3089.4	0.544776
3099.05	0.541335
3108.69	0.543433
3118.33	0.544545
3127.97	0.544593
3137.61	0.542648
3147.26	0.54418
3156.9	0.545045
3166.54	0.54356
3176.18	0.546231
3185.83	0.544543
3195.47	0.546493
3205.11	0.544351
3214.75	0.545088
3224.4	0.546137
3234.04	0.54855
3243.68	0.547785
3253.32	0.549629
3262.97	0.547834
3272.61	0.550237
3282.25	0.548764
3291.89	0.549855
3301.53	0.553447
3311.18	0.551028
3320.82	0.552451
3330.46	0.554162
3340.1	0.548323
3349.75	0.555632
3359.39	0.552143
3369.03	0.55325
3378.67	0.555943
3388.32	0.555052
3397.96	0.551161
3407.6	0.555551
3417.24	0.551657
3426.89	0.553834
3436.53	0.551009
3446.17	0.553459
3455.81	0.551823
3465.45	0.555825
3475.1	0.551237
3484.74	0.554574
3494.38	0.552991
3504.02	0.551117
3513.67	0.552154
3523.31	0.552275
3532.95	0.55219
3542.59	0.554437
3552.24	0.555578
3561.88	0.550243
3571.52	0.551221
3581.16	0.555072
3590.8	0.552639
3600.45	0.555264
3610.09	0.553588
3619.73	0.55091
3629.37	0.554844
3639.02	0.562475
3648.66	0.558633
3658.3	0.555137
3667.94	0.561249
3677.59	0.561839
3687.23	0.565526
3696.87	0.563166
3706.51	0.566609
3716.16	0.564901
3725.8	0.563828
3735.44	0.56804
3745.08	0.563431
3754.72	0.571164
3764.37	0.57185
3774.01	0.569286
3783.65	0.56902
3793.29	0.572142
3802.94	0.57928
3812.58	0.57671
3822.22	0.574052
3831.86	0.576099
3841.51	0.570637
3851.15	0.580515
3860.79	0.577763
3870.43	0.579921
3880.07	0.578883
3889.72	0.578663
3899.36	0.581237
3909	0.579373
3918.64	0.585963
3928.29	0.583364
3937.93	0.585133
3947.57	0.583563
3957.21	0.589124
3966.86	0.588866
3976.5	0.587856
3986.14	0.584977
