Measurement: Infrared, Infrared Data Processed
Mineral: Rhodochrosite
Rruff sample: R050019
Ideal chemistry: Mn^2+^CO_3_
Locality: Home Sweet Home mine, Colorado, USA
Source: Eugene Schlepp
Description: Pink single crystal rhombs on quartz
Measured chemistry: Mn_1.00_CO_3_
x	intensity
399.193	0.0177797
408.835	0.016915
418.477	0.0158508
428.12	0.0166224
437.762	0.0180327
447.404	0.0171029
457.047	0.0181698
466.689	0.0185521
476.331	0.0178959
485.974	0.0159835
495.616	0.015101
505.258	0.0141827
514.901	0.0138712
524.543	0.0148983
534.185	0.0143092
543.828	0.0148565
553.47	0.0142924
563.112	0.0156799
572.755	0.0171669
582.397	0.0177547
592.039	0.0176547
601.682	0.0177176
611.324	0.0182015
620.966	0.018834
630.609	0.0197045
640.251	0.0203737
649.893	0.0213097
659.536	0.0223502
669.178	0.0240024
678.82	0.0261596
688.463	0.0282167
698.105	0.0330249
707.747	0.0397847
717.39	0.0673779
727.032	0.132764
736.674	0.0212579
746.317	0.0224109
755.959	0.0246692
765.601	0.0278958
775.244	0.0309406
784.886	0.0331398
794.528	0.0359753
804.171	0.0387281
813.813	0.0426708
823.455	0.0510093
833.098	0.0731784
842.74	0.0997559
852.382	0.198526
862.025	0.276554
871.667	0.119849
881.309	0.0362229
890.952	0.0370205
900.594	0.0389543
910.236	0.041171
919.879	0.0434921
929.521	0.0460884
939.163	0.04905
948.806	0.0520986
958.448	0.0555174
968.09	0.0598366
977.733	0.0638906
987.375	0.0684681
997.017	0.0731023
1006.66	0.0778784
1016.3	0.0830864
1025.94	0.0867744
1035.59	0.0899855
1045.23	0.0931994
1054.87	0.0961522
1064.51	0.0985266
1074.16	0.100426
1083.8	0.101007
1093.44	0.100512
1103.08	0.102036
1112.72	0.104118
1122.37	0.106692
1132.01	0.110895
1141.65	0.116349
1151.3	0.120853
1160.94	0.123887
1170.58	0.126233
1180.22	0.129976
1189.86	0.136116
1199.51	0.140112
1209.15	0.143702
1218.79	0.149295
1228.43	0.15634
1238.08	0.165329
1247.72	0.174798
1257.36	0.184587
1267	0.195023
1276.64	0.207713
1286.29	0.220802
1295.93	0.236786
1305.57	0.252769
1315.21	0.270385
1324.86	0.291289
1334.5	0.313453
1344.14	0.332311
1353.78	0.359357
1363.43	0.38889
1373.07	0.417955
1382.71	0.441928
1392.35	0.455835
1401.99	0.452156
1411.64	0.415939
1421.28	0.384717
1430.92	0.351287
1440.57	0.317411
1450.21	0.283785
1459.85	0.252649
1469.49	0.224963
1479.13	0.199174
1488.78	0.173612
1498.42	0.148729
1508.06	0.12484
1517.7	0.102838
1527.35	0.0835412
1536.99	0.063843
1546.63	0.039961
1556.27	0.0211234
1565.91	0.0178904
1575.56	0.0192167
1585.2	0.0201527
1594.84	0.0178545
1604.48	0.0139411
1614.13	0.0130859
1623.77	0.0113477
1633.41	0.0104023
1643.05	0.00970202
1652.7	0.00888181
1662.34	0.00832974
1671.98	0.00727045
1681.62	0.00660111
1691.27	0.00619439
1700.91	0.00573725
1710.55	0.00520444
1720.19	0.00566342
1729.84	0.00568656
1739.48	0.00539529
1749.12	0.00621641
1758.76	0.00664063
1768.4	0.00695897
1778.05	0.00733175
1787.69	0.01017
1797.33	0.0189946
1806.97	0.0170056
1816.62	0.00778417
1826.26	0.00623646
1835.9	0.00543362
1845.54	0.00591606
1855.18	0.00599204
1864.83	0.00585234
1874.47	0.00591922
1884.11	0.00602701
1893.75	0.00614457
1903.4	0.00669983
1913.04	0.00710884
1922.68	0.00641111
1932.32	0.00636351
1941.97	0.00641999
1951.61	0.00670827
1961.25	0.00671978
1970.89	0.00494631
1980.54	0.00885578
1990.18	0.0062208
1999.82	0.00681408
2009.46	0.00696001
2019.11	0.0055859
2028.75	0.00639178
2038.39	0.00811884
2048.03	0.00905665
2057.67	0.00832772
2067.32	0.0094603
2076.96	0.0103043
2086.6	0.0103768
2096.24	0.0108268
2105.89	0.0104632
2115.53	0.0103322
2125.17	0.00987349
2134.81	0.00894815
2144.45	0.00884398
2154.1	0.00514643
2163.74	0.010175
2173.38	0.00959408
2183.02	0.00887021
2192.67	0.0128618
2202.31	0.0116864
2211.95	0.0126822
2221.59	0.0137204
2231.24	0.0127966
2240.88	0.0138734
2250.52	0.0131322
2260.16	0.0139668
2269.8	0.0160547
2279.45	0.0161057
2289.09	0.0168526
2298.73	0.0167112
2308.38	0.017484
2318.02	0.0177064
2327.66	0.016972
2337.3	0.0170648
2346.94	0.0174305
2356.59	0.0171502
2366.23	0.0166102
2375.87	0.0163006
2385.51	0.0165932
2395.16	0.01687
2404.8	0.0170166
2414.44	0.0175199
2424.08	0.0177256
2433.72	0.0184904
2443.37	0.018932
2453.01	0.019778
2462.65	0.0212876
2472.29	0.0222561
2481.94	0.0290144
2491.58	0.0323845
2501.22	0.0284813
2510.86	0.0260785
2520.51	0.0225502
2530.15	0.0204287
2539.79	0.019999
2549.43	0.0201676
2559.07	0.0203076
2568.72	0.0210613
2578.36	0.0200315
2588	0.0201728
2597.64	0.0203089
2607.29	0.0202045
2616.93	0.0200799
2626.57	0.0197312
2636.21	0.0195885
2645.86	0.0199241
2655.5	0.0199744
2665.14	0.0199055
2674.78	0.0191756
2684.43	0.0196043
2694.07	0.0197102
2703.71	0.0201317
2713.35	0.0193731
2722.99	0.0195733
2732.64	0.0201243
2742.28	0.0202383
2751.92	0.0201961
2761.56	0.0207277
2771.21	0.0206234
2780.85	0.0214664
2790.49	0.0213188
2800.13	0.0229835
2809.78	0.0230491
2819.42	0.0249786
2829.06	0.0264003
2838.7	0.0271539
2848.34	0.0268966
2857.99	0.0251645
2867.63	0.0242556
2877.27	0.0247272
2886.91	0.0252289
2896.56	0.0253819
2906.2	0.0257388
2915.84	0.0257553
2925.48	0.0246642
2935.13	0.0254205
2944.77	0.026562
2954.41	0.0257516
2964.05	0.0265445
2973.7	0.0275026
2983.34	0.0270836
2992.98	0.0257566
3002.62	0.0258155
3012.26	0.0266808
3021.91	0.0268443
3031.55	0.0277388
3041.19	0.026996
3050.83	0.0277519
3060.48	0.02894
3070.12	0.0291648
3079.76	0.030396
3089.4	0.0305931
3099.05	0.0312965
3108.69	0.0313497
3118.33	0.0316841
3127.97	0.0312567
3137.61	0.0329151
3147.26	0.0325941
3156.9	0.03389
3166.54	0.0332963
3176.18	0.0334418
3185.83	0.0347769
3195.47	0.0346504
3205.11	0.0339221
3214.75	0.0355717
3224.4	0.0354758
3234.04	0.0361444
3243.68	0.035859
3253.32	0.0356781
3262.97	0.0370431
3272.61	0.037684
3282.25	0.0369597
3291.89	0.0376106
3301.53	0.0374008
3311.18	0.0379524
3320.82	0.0376559
3330.46	0.0386388
3340.1	0.0381028
3349.75	0.039282
3359.39	0.0395104
3369.03	0.0395414
3378.67	0.0404824
3388.32	0.0388611
3397.96	0.039718
3407.6	0.0386715
3417.24	0.0382372
3426.89	0.0394646
3436.53	0.0381283
3446.17	0.0366346
3455.81	0.03792
3465.45	0.038943
3475.1	0.0388649
3484.74	0.0387671
3494.38	0.036606
3504.02	0.0359972
3513.67	0.0376168
3523.31	0.0369326
3532.95	0.0364641
3542.59	0.0356095
3552.24	0.0362631
3561.88	0.0360556
3571.52	0.036738
3581.16	0.0360218
3590.8	0.037698
3600.45	0.0354272
3610.09	0.0350923
3619.73	0.0338888
3629.37	0.0352296
3639.02	0.0354182
3648.66	0.0364476
3658.3	0.0342286
3667.94	0.0355713
3677.59	0.0341919
3687.23	0.03495
3696.87	0.0358465
3706.51	0.034137
3716.16	0.0370509
3725.8	0.037352
3735.44	0.0352986
3745.08	0.0345007
3754.72	0.0343018
3764.37	0.0353997
3774.01	0.0358061
3783.65	0.0366858
3793.29	0.0369551
3802.94	0.0370066
3812.58	0.0375045
3822.22	0.036567
3831.86	0.0391203
3841.51	0.0384445
3851.15	0.0359008
3860.79	0.0360381
3870.43	0.0363294
3880.07	0.0373021
3889.72	0.0389178
3899.36	0.0354833
3909	0.0358588
3918.64	0.0373783
3928.29	0.0373085
3937.93	0.0367281
3947.57	0.0373645
3957.21	0.0384019
3966.86	0.0390387
3976.5	0.0379737
3986.14	0.040181
3995.78	0.0394176
