Measurement: Infrared, Infrared Data Processed
Mineral: Rhodizite
Rruff sample: R050099
Ideal chemistry: KAl_4_Be_5_B_11_O_28_
Locality: Mont Ibity, Antsirabe, Madagascar
Source: Rock Currier
Description: Pale green single crystals
Measured chemistry: ([box]_0.49_K_0.32_Rb_0.17_Na_0.02_)(Al_3.96_Si_0.04_)_Σ=4_Be_4.00_(B_11.45_Be_0.55_)_Σ=12_O_28_
x	intensity
399.193	0
408.835	0.0796779
418.477	0.0917764
428.12	0.0977077
437.762	0.105413
447.404	0.100987
457.047	0.0873976
466.689	0.0715662
476.331	0.0802731
485.974	0.0782435
495.616	0.0869094
505.258	0.0934526
514.901	0.0985058
524.543	0.0982945
534.185	0.102591
543.828	0.107576
553.47	0.11213
563.112	0.114409
572.755	0.11814
582.397	0.121647
592.039	0.124708
601.682	0.126099
611.324	0.119669
620.966	0.082654
630.609	0.0544972
640.251	0.0744357
649.893	0.0762047
659.536	0.089932
669.178	0.101255
678.82	0.0917109
688.463	0.0782118
698.105	0.0875115
707.747	0.0896844
717.39	0.0936886
727.032	0.102557
736.674	0.108547
746.317	0.112126
755.959	0.113548
765.601	0.111588
775.244	0.107922
784.886	0.109221
794.528	0.112374
804.171	0.11586
813.813	0.118826
823.455	0.121628
833.098	0.123175
842.74	0.124038
852.382	0.122325
862.025	0.120932
871.667	0.120709
881.309	0.120817
890.952	0.121295
900.594	0.122527
910.236	0.123354
919.879	0.1211
929.521	0.117246
939.163	0.110082
948.806	0.101942
958.448	0.0940644
968.09	0.0885111
977.733	0.0833962
987.375	0.077747
997.017	0.0732736
1006.66	0.0724506
1016.3	0.0753388
1025.94	0.0736768
1035.59	0.0699303
1045.23	0.0654777
1054.87	0.062281
1064.51	0.0574632
1074.16	0.0481508
1083.8	0.0440055
1093.44	0.0456432
1103.08	0.0517338
1112.72	0.0596182
1122.37	0.0651433
1132.01	0.0678721
1141.65	0.0681116
1151.3	0.0646875
1160.94	0.0593959
1170.58	0.0522677
1180.22	0.0435991
1189.86	0.0347747
1199.51	0.02669
1209.15	0.0211166
1218.79	0.0176135
1228.43	0.0144322
1238.08	0.0111669
1247.72	0.00893863
1257.36	0.00698043
1267	0.00496058
1276.64	0.00279406
1286.29	0.0018828
1295.93	0.00127693
1305.57	0.000938335
1315.21	0.000826364
1324.86	0.000677805
1334.5	0.000448242
1344.14	0.000383319
1353.78	0.000133335
1363.43	0.000144279
1373.07	0.000268536
1382.71	-3.607e-05
1392.35	0.000217212
1401.99	0.000263784
1411.64	0.00022658
1421.28	0.000240438
1430.92	0.000181418
1440.57	0.000243771
1450.21	0.000140537
1459.85	-0.000221587
1469.49	-0.000130012
1479.13	0.000277567
1488.78	-9.67457e-05
1498.42	-0.00017238
1508.06	-0.000129105
1517.7	-0.000241899
1527.35	-0.000274498
1536.99	5.34849e-05
1546.63	-0.000169754
1556.27	0.000114848
1565.91	0.000202412
1575.56	-2.65949e-06
1585.2	0.000342024
1594.84	0.000438709
1604.48	0.000658887
1614.13	0.000637977
1623.77	0.000881908
1633.41	0.00143108
1643.05	0.00132208
1652.7	0.000988273
1662.34	0.000533175
1671.98	0.000221494
1681.62	0.000467994
1691.27	0.000314786
1700.91	-0.000270521
1710.55	-0.000116655
1720.19	-0.000339364
1729.84	-0.00038716
1739.48	-0.00124786
1749.12	-0.0011502
1758.76	-0.000723033
1768.4	-0.00110258
1778.05	-0.000486226
1787.69	-0.000481325
1797.33	-0.000676693
1806.97	-0.00083646
1816.62	-0.000863166
1826.26	-0.000261888
1835.9	-0.000836925
1845.54	-0.000256748
1855.18	-0.00103505
1864.83	-0.000176957
1874.47	-0.000332886
1884.11	-0.000804799
1893.75	-0.00090471
1903.4	-0.000207714
1913.04	-0.00129372
1922.68	-0.000700455
1932.32	-0.00189968
1941.97	-0.0029462
1951.61	-0.00220844
1961.25	-0.00148536
1970.89	-0.00145444
1980.54	0.00199155
1990.18	-0.000823249
1999.82	-0.00151366
2009.46	-0.00110149
2019.11	-0.00242906
2028.75	-0.000470966
2038.39	0.0012892
2048.03	0.000146068
2057.67	-0.00223692
2067.32	-0.000908404
2076.96	-0.000465944
2086.6	-0.000519804
2096.24	-0.000536585
2105.89	0.00012129
2115.53	-0.000951549
2125.17	-0.0015546
2134.81	-0.00205506
2144.45	-0.00147608
2154.1	-0.00606843
2163.74	-0.00201512
2173.38	-0.00107826
2183.02	0.00126551
2192.67	-0.00123965
2202.31	-0.00379669
2211.95	-0.00139493
2221.59	-0.000581076
2231.24	-0.00208753
2240.88	-0.00103586
2250.52	-0.00167382
2260.16	-0.000376492
2269.8	-0.00107503
2279.45	-0.000352819
2289.09	-0.000744397
2298.73	-0.00034316
2308.38	0.000350603
2318.02	0.000459148
2327.66	0.000124746
2337.3	-0.000162455
2346.94	-0.0011901
2356.59	-0.000164615
2366.23	-0.00100298
2375.87	-0.000854078
2385.51	-0.00112283
2395.16	-0.00117285
2404.8	-0.000429138
2414.44	-0.000859472
2424.08	-0.000688094
2433.72	-0.000304024
2443.37	0.000154263
2453.01	0.000295515
2462.65	0.000783491
2472.29	-0.00108964
2481.94	-0.000512995
2491.58	-0.00116964
2501.22	0.000276221
2510.86	-8.6471e-05
2520.51	0.000411938
2530.15	0.000472644
2539.79	0.000384117
2549.43	0.000342483
2559.07	6.79852e-05
2568.72	-0.000271151
2578.36	0.000953634
2588	0.000547297
2597.64	0.00018919
2607.29	0.000103148
2616.93	3.20545e-06
2626.57	0.000849369
2636.21	2.43735e-05
2645.86	0.000196662
2655.5	0.000388626
2665.14	-0.00105504
2674.78	-0.000210719
2684.43	-0.00116432
2694.07	-0.000920477
2703.71	-9.22451e-05
2713.35	-0.000627697
2722.99	-0.00113651
2732.64	-0.000204125
2742.28	-0.000811092
2751.92	-0.00025251
2761.56	-0.000737052
2771.21	-0.0013021
2780.85	-0.000809966
2790.49	-0.000927524
2800.13	-0.00101722
2809.78	-0.000264131
2819.42	-0.000123901
2829.06	-0.000627354
2838.7	-0.000601193
2848.34	-0.00171819
2857.99	-0.00190178
2867.63	-0.0010383
2877.27	-0.00162253
2886.91	-0.000463953
2896.56	-0.00159582
2906.2	-0.00117367
2915.84	-0.00219345
2925.48	-0.00302739
2935.13	-0.00310324
2944.77	-0.00206296
2954.41	-0.00186846
2964.05	-0.00139452
2973.7	-0.00199222
2983.34	-0.00168113
2992.98	-0.00180976
3002.62	-0.00205758
3012.26	-0.0010676
3021.91	-0.00118256
3031.55	-0.00189887
3041.19	-0.00192332
3050.83	-0.00206235
3060.48	-0.000594277
3070.12	-0.00124938
3079.76	-0.001379
3089.4	-0.00127031
3099.05	-0.00165779
3108.69	-0.000831863
3118.33	-0.000612416
3127.97	-0.000460977
3137.61	-0.000416979
3147.26	-0.00100203
3156.9	-0.000504758
3166.54	-0.000211339
3176.18	-0.000865473
3185.83	-0.00134864
3195.47	-0.00263772
3205.11	-0.00104071
3214.75	-0.000522832
3224.4	-0.000119685
3234.04	-0.000737181
3243.68	-0.00130075
3253.32	-0.00101897
3262.97	-0.00115584
3272.61	-0.00233248
3282.25	-0.00131544
3291.89	-0.00200894
3301.53	-0.00123486
3311.18	-0.00132758
3320.82	-0.00211382
3330.46	-0.000630197
3340.1	-0.00114046
3349.75	-0.000997464
3359.39	-0.00241409
3369.03	-0.00106255
3378.67	-0.000978662
3388.32	-0.00154489
3397.96	-0.00104916
3407.6	-0.000693303
3417.24	-0.000865919
3426.89	-0.00147218
3436.53	-0.000961952
3446.17	-0.00442383
3455.81	-0.00141024
3465.45	-0.000367712
3475.1	-0.00238824
3484.74	-0.00186621
3494.38	-0.00350171
3504.02	-0.00198692
3513.67	-0.00216945
3523.31	-0.00117404
3532.95	-0.00214944
3542.59	-0.00147671
3552.24	-0.000408319
3561.88	-0.00333147
3571.52	-0.00166633
3581.16	-0.00274707
3590.8	-0.00306239
3600.45	-0.00333968
3610.09	-0.00221427
3619.73	-0.00412165
3629.37	-0.00262546
3639.02	-0.00280816
3648.66	-0.00493827
3658.3	-0.00337131
3667.94	-0.00351323
3677.59	-0.00231492
3687.23	-0.00454793
3696.87	-0.00532878
3706.51	-0.00539776
3716.16	-0.0020426
3725.8	-0.00454268
3735.44	-0.00474536
3745.08	-0.00508137
3754.72	-0.00598517
3764.37	-0.00622632
3774.01	-0.00322996
3783.65	-0.00587276
3793.29	-0.00503926
3802.94	-0.00571108
3812.58	-0.00567558
3822.22	-0.00464482
3831.86	-0.00540577
3841.51	-0.00529326
3851.15	-0.00549605
3860.79	-0.00525402
3870.43	-0.00421199
3880.07	-0.00561985
3889.72	-0.00680515
3899.36	-0.00521351
3909	-0.00491738
3918.64	-0.00463547
3928.29	-0.00575479
3937.93	-0.00538539
3947.57	-0.00671967
3957.21	-0.00540809
3966.86	-0.00652336
3976.5	-0.00460455
3986.14	-0.0047207
3995.78	-0.00709513
