Measurement: Infrared, Infrared Data Processed
Mineral: Rhodochrosite
Rruff sample: R050116
Ideal chemistry: Mn^2+^CO_3_
Locality: Wudong mine, Liubao, Guangxi Autonomous Region, China
Source: He Xin Jian
Description: Pink crystal associated with colorless quartz
Measured chemistry: (Mn_0.81_Fe_0.17_Mg_0.01_Ca_0.01_)CO_3_
x	intensity
50.1401	0.0282938
52.0686	0.0223555
53.9971	0.0245255
55.9255	0.0233499
57.854	0.0233727
59.7825	0.0322408
61.7109	0.0316608
63.6394	0.0318789
65.5679	0.0315862
67.4963	0.0348048
69.4248	0.0377394
71.3533	0.0414799
73.2817	0.043183
75.2102	0.0431569
77.1387	0.0434859
79.0671	0.0466174
80.9956	0.0476599
82.9241	0.0508756
84.8525	0.0533745
86.781	0.0537581
88.7095	0.0538461
90.6379	0.055223
92.5664	0.0590266
94.4948	0.0627653
96.4233	0.0644416
98.3518	0.0651001
100.28	0.0638677
102.209	0.067784
104.137	0.0701328
106.066	0.0731485
107.994	0.076566
109.923	0.0810956
111.851	0.0839913
113.779	0.0854359
115.708	0.0857538
117.636	0.0904623
119.565	0.0937292
121.493	0.0965064
123.422	0.098514
125.35	0.101842
127.279	0.104403
129.207	0.107805
131.136	0.108737
133.064	0.11212
134.993	0.114923
136.921	0.119369
138.85	0.119667
140.778	0.122005
142.707	0.122586
144.635	0.123537
146.563	0.124183
148.492	0.126579
150.42	0.124564
152.349	0.124336
154.277	0.121766
156.206	0.119135
158.134	0.114248
160.063	0.10918
161.991	0.103945
163.92	0.0994947
165.848	0.0958207
167.777	0.0961106
169.705	0.10017
171.633	0.10782
173.562	0.113435
175.49	0.117113
177.419	0.117281
179.347	0.117433
181.276	0.117109
183.204	0.116806
185.133	0.114374
187.061	0.112147
188.99	0.109188
190.918	0.106708
192.847	0.104592
194.775	0.103277
196.704	0.102096
198.632	0.101984
200.56	0.101091
202.489	0.098287
204.417	0.0931637
206.346	0.0891064
208.274	0.0829741
210.203	0.0761277
212.131	0.0690797
214.06	0.0618227
215.988	0.055077
217.917	0.0493333
219.845	0.0450554
221.774	0.0425427
223.702	0.0416173
225.631	0.0418736
227.559	0.043758
229.488	0.0473028
231.416	0.0513572
233.344	0.0560526
235.273	0.0614204
237.201	0.0670573
239.13	0.0727439
241.058	0.0790696
242.987	0.0850716
244.915	0.0908645
246.844	0.0962941
248.772	0.102801
250.701	0.109721
252.629	0.116304
254.558	0.122992
256.486	0.129504
258.414	0.134821
260.343	0.140542
262.271	0.146449
264.2	0.152461
266.128	0.158225
268.057	0.163842
269.985	0.16856
271.914	0.173449
273.842	0.177853
275.771	0.18202
277.699	0.185017
279.628	0.187995
281.556	0.189764
283.485	0.191142
285.413	0.191987
287.341	0.191957
289.27	0.191846
291.198	0.191807
293.127	0.190335
295.055	0.18877
296.984	0.186727
298.912	0.18427
300.841	0.181184
302.769	0.177521
304.698	0.173089
306.626	0.169448
308.555	0.165464
310.483	0.162079
312.411	0.158532
314.34	0.1543
316.269	0.14922
318.197	0.144854
320.125	0.140625
322.054	0.136088
323.982	0.131581
325.911	0.127941
327.839	0.123999
329.768	0.120066
331.696	0.116246
333.625	0.112514
335.553	0.108804
337.482	0.105541
339.41	0.102328
341.339	0.0991505
343.267	0.0958711
345.195	0.0932227
347.124	0.090751
349.052	0.0881122
350.981	0.085612
352.909	0.083214
354.838	0.0808491
356.766	0.0785986
358.695	0.0764279
360.623	0.0743359
362.552	0.0722101
364.48	0.0700449
366.409	0.0676666
368.337	0.0650701
370.265	0.0623451
372.194	0.0598872
374.122	0.0574658
376.051	0.0550599
377.979	0.0531957
379.908	0.0516211
381.836	0.0499679
383.765	0.0482373
385.693	0.0465347
387.622	0.0450545
389.55	0.0434257
391.479	0.0418741
393.407	0.0404646
395.336	0.039336
397.264	0.0384022
399.192	0.0376417
401.121	0.0370762
403.049	0.0367139
404.978	0.0364896
406.906	0.0360843
408.835	0.0357233
410.763	0.0355187
412.692	0.0351112
414.62	0.0345791
416.549	0.0342828
418.477	0.0340595
420.406	0.033891
422.334	0.0337463
424.262	0.033794
426.191	0.0338983
428.12	0.0338696
430.048	0.0338159
431.976	0.0339195
433.905	0.0342928
435.833	0.0345968
437.762	0.0348122
439.69	0.0349252
441.619	0.0347738
443.547	0.0345709
445.476	0.0347074
447.404	0.0350079
449.333	0.0353283
451.261	0.0356173
453.19	0.0355452
455.118	0.0356859
457.046	0.0361332
458.975	0.0363663
460.903	0.0363252
462.832	0.0364901
464.76	0.0367613
466.689	0.0368057
468.617	0.0369717
470.546	0.0373054
472.474	0.0372379
474.403	0.0368255
476.331	0.0366618
478.26	0.0366001
480.188	0.0365757
482.116	0.0364291
484.045	0.0361204
485.974	0.0359476
487.902	0.0357171
489.83	0.035616
491.759	0.0356253
493.687	0.0354786
495.616	0.0355795
497.544	0.0358491
499.473	0.0358812
501.401	0.0357936
503.33	0.0356097
505.258	0.0354849
507.187	0.0355113
509.115	0.0355275
511.043	0.0352409
512.972	0.0352282
514.9	0.0357164
516.829	0.0361896
518.757	0.0363172
520.686	0.0366397
522.614	0.0370043
524.543	0.0374261
526.471	0.0377085
528.4	0.0378435
530.328	0.038087
532.257	0.0382915
534.185	0.0382986
536.114	0.0383705
538.042	0.0386466
539.971	0.0386302
541.899	0.0388708
543.827	0.0391715
545.756	0.0392249
547.684	0.0396503
549.613	0.0398735
551.541	0.039727
553.47	0.0398682
555.398	0.0403996
557.327	0.0408929
559.255	0.0408924
561.184	0.0406988
563.112	0.0411313
565.041	0.0412999
566.969	0.041472
568.898	0.0416898
570.826	0.041997
572.755	0.0422176
574.683	0.0425639
576.611	0.0429285
578.54	0.0431996
580.468	0.0431856
582.397	0.0431744
584.325	0.0431571
586.254	0.0432081
588.182	0.0431522
590.111	0.0431842
592.039	0.0432617
593.968	0.0431409
595.896	0.043048
597.824	0.042827
599.753	0.0425654
601.682	0.0426589
603.61	0.0428276
605.538	0.0429494
607.467	0.042953
609.395	0.042716
611.324	0.0427504
613.252	0.0433881
615.181	0.0441494
617.109	0.0450061
619.038	0.0454827
620.966	0.0458792
622.894	0.0463421
624.823	0.0469843
626.751	0.0479962
628.68	0.049152
630.608	0.050474
632.537	0.0514553
634.465	0.0522931
636.394	0.0530237
638.322	0.0534339
640.251	0.0541797
642.179	0.0547614
644.108	0.0551138
646.036	0.0559327
647.965	0.0566723
649.893	0.0572406
651.822	0.0578232
653.75	0.0584684
655.678	0.0591805
657.607	0.0596237
659.535	0.0601942
661.464	0.0607515
663.392	0.0610115
665.321	0.0612014
667.249	0.0618594
669.178	0.0624387
671.106	0.0626919
673.035	0.0629602
674.963	0.0639179
676.892	0.0645452
678.82	0.0647845
680.749	0.0654428
682.677	0.066527
684.606	0.0671169
686.534	0.0675613
688.462	0.0684288
690.391	0.0690708
692.319	0.0701577
694.248	0.071884
696.176	0.0731662
698.105	0.0741413
700.033	0.0755336
