Measurement: Infrared, Infrared Data Processed
Mineral: Richterite
Rruff sample: R050414
Ideal chemistry: Na(CaNa)Mg_5_Si_8_O_22_(OH)_2_
Locality: Kokcha Valley, Badakhshan, Afghanistan
Source: Marcus Origlieri
Description: Transparent pale yellowish-green bladed crystal
Measured chemistry: (Na_0.67_K_0.33_)_Σ=1_(Ca_1.19_Na_0.81_)_Σ=2_Mg_5.00_(Si_7.80_Al_0.19_Ti_0.01_)_Σ=8_O_22_((OH)_1.58_F_0.42_)_Σ=2_
x	intensity
399.193	0.254354
408.835	0.271255
418.477	0.267526
428.12	0.272731
437.762	0.299489
447.404	0.283792
457.047	0.25481
466.689	0.23413
476.331	0.203134
485.974	0.187024
495.616	0.185012
505.258	0.180293
514.901	0.146407
524.543	0.130507
534.185	0.115174
543.828	0.0964591
553.47	0.0661039
563.112	0.0431173
572.755	0.03038
582.397	0.0271364
592.039	0.0296409
601.682	0.0316712
611.324	0.0303801
620.966	0.0282318
630.609	0.0280641
640.251	0.0327519
649.893	0.0492977
659.536	0.08928
669.178	0.0852559
678.82	0.0481367
688.463	0.0413673
698.105	0.0455947
707.747	0.0488532
717.39	0.0456556
727.032	0.0548082
736.674	0.0876388
746.317	0.083926
755.959	0.0503674
765.601	0.0319367
775.244	0.029732
784.886	0.0309782
794.528	0.0341103
804.171	0.0391073
813.813	0.0460931
823.455	0.0526197
833.098	0.0626579
842.74	0.0792004
852.382	0.0986637
862.025	0.123784
871.667	0.165042
881.309	0.205923
890.952	0.262665
900.594	0.316686
910.236	0.352487
919.879	0.346198
929.521	0.331848
939.163	0.34066
948.806	0.356081
958.448	0.364751
968.09	0.3467
977.733	0.308744
987.375	0.258923
997.017	0.210812
1006.66	0.172322
1016.3	0.147932
1025.94	0.138265
1035.59	0.146128
1045.23	0.151096
1054.87	0.153249
1064.51	0.14413
1074.16	0.130868
1083.8	0.115954
1093.44	0.0948853
1103.08	0.0775807
1112.72	0.0604716
1122.37	0.0431179
1132.01	0.047545
1141.65	0.0795987
1151.3	0.065087
1160.94	0.0292486
1170.58	0.0130159
1180.22	0.00792467
1189.86	0.00636458
1199.51	0.0053068
1209.15	0.0042546
1218.79	0.00368275
1228.43	0.00354047
1238.08	0.00371566
1247.72	0.00335143
1257.36	0.00312658
1267	0.00318121
1276.64	0.00353896
1286.29	0.00306561
1295.93	0.00290137
1305.57	0.0031836
1315.21	0.00335096
1324.86	0.00366575
1334.5	0.00405994
1344.14	0.00427947
1353.78	0.00503328
1363.43	0.00569027
1373.07	0.00690902
1382.71	0.00785659
1392.35	0.00935574
1401.99	0.0108171
1411.64	0.0125273
1421.28	0.0150442
1430.92	0.0184564
1440.57	0.0244788
1450.21	0.0314036
1459.85	0.032325
1469.49	0.0301772
1479.13	0.0262863
1488.78	0.0223595
1498.42	0.018735
1508.06	0.0147819
1517.7	0.0126184
1527.35	0.0108121
1536.99	0.0103359
1546.63	0.00937771
1556.27	0.0087443
1565.91	0.00825433
1575.56	0.00759263
1585.2	0.00741442
1594.84	0.00701557
1604.48	0.00688277
1614.13	0.00652352
1623.77	0.00687291
1633.41	0.00667767
1643.05	0.00635189
1652.7	0.0065902
1662.34	0.00599055
1671.98	0.00566754
1681.62	0.00465166
1691.27	0.00457164
1700.91	0.00410744
1710.55	0.00439721
1720.19	0.00367564
1729.84	0.00434693
1739.48	0.00255008
1749.12	0.00296423
1758.76	0.00271951
1768.4	0.00322747
1778.05	0.00290544
1787.69	0.00246505
1797.33	0.00155952
1806.97	0.00186844
1816.62	0.00259981
1826.26	0.00164362
1835.9	0.00149382
1845.54	0.00234064
1855.18	0.00175423
1864.83	0.00194994
1874.47	0.000540401
1884.11	0.00169149
1893.75	0.000399172
1903.4	0.00107183
1913.04	-0.000695505
1922.68	-0.00139298
1932.32	-0.000430142
1941.97	-0.00252787
1951.61	-0.00101392
1961.25	-0.00338938
1970.89	-0.00250165
1980.54	-0.00390064
1990.18	-0.00222323
1999.82	-0.00265933
2009.46	-0.000776462
2019.11	0.000191157
2028.75	-0.00410787
2038.39	-0.00159622
2048.03	0.00119527
2057.67	0.000526839
2067.32	0.00195262
2076.96	0.00206484
2086.6	0.00310669
2096.24	0.00171261
2105.89	0.00231959
2115.53	0.000363379
2125.17	0.00155326
2134.81	-0.00116597
2144.45	-0.00308696
2154.1	-0.00650172
2163.74	0.000725961
2173.38	-3.17572e-05
2183.02	0.00205516
2192.67	0.00146215
2202.31	0.000769063
2211.95	0.00430205
2221.59	0.00275497
2231.24	0.00303432
2240.88	0.00636209
2250.52	0.00327914
2260.16	0.00547851
2269.8	0.00430956
2279.45	0.00573946
2289.09	0.00643683
2298.73	0.00624717
2308.38	0.00529392
2318.02	0.00841476
2327.66	0.0100083
2337.3	0.0112657
2346.94	0.0084666
2356.59	0.0136284
2366.23	0.0115545
2375.87	0.00838522
2385.51	0.00635862
2395.16	0.00618
2404.8	0.00665192
2414.44	0.00850078
2424.08	0.00619929
2433.72	0.00686464
2443.37	0.00637338
2453.01	0.00819927
2462.65	0.00650052
2472.29	0.00489611
2481.94	0.00661853
2491.58	0.00753315
2501.22	0.0066381
2510.86	0.00631746
2520.51	0.00769167
2530.15	0.00588031
2539.79	0.00616799
2549.43	0.0071008
2559.07	0.00724022
2568.72	0.00755633
2578.36	0.00769643
2588	0.0071876
2597.64	0.0085815
2607.29	0.0075182
2616.93	0.00776607
2626.57	0.00844172
2636.21	0.00779067
2645.86	0.0091396
2655.5	0.00827651
2665.14	0.00711214
2674.78	0.00812767
2684.43	0.00788228
2694.07	0.00836489
2703.71	0.00833564
2713.35	0.00770766
2722.99	0.00699949
2732.64	0.00723587
2742.28	0.0079294
2751.92	0.00887766
2761.56	0.00835497
2771.21	0.00852016
2780.85	0.00871211
2790.49	0.0083086
2800.13	0.00802113
2809.78	0.0084203
2819.42	0.00756699
2829.06	0.00766285
2838.7	0.00814913
2848.34	0.00796649
2857.99	0.009061
2867.63	0.00741352
2877.27	0.00970923
2886.91	0.0100813
2896.56	0.00881847
2906.2	0.00706142
2915.84	0.00709223
2925.48	0.00783127
2935.13	0.007611
2944.77	0.0079259
2954.41	0.00782193
2964.05	0.0101797
2973.7	0.0107742
2983.34	0.00834734
2992.98	0.00917534
3002.62	0.00823328
3012.26	0.00958943
3021.91	0.00987372
3031.55	0.0114557
3041.19	0.00970608
3050.83	0.0082422
3060.48	0.0111191
3070.12	0.00955597
3079.76	0.00975506
3089.4	0.00858631
3099.05	0.0119278
3108.69	0.0123128
3118.33	0.0100885
3127.97	0.0119303
3137.61	0.0114281
3147.26	0.0110667
3156.9	0.0118131
3166.54	0.0141028
3176.18	0.0113315
3185.83	0.0123216
3195.47	0.0129243
3205.11	0.0135978
3214.75	0.0133131
3224.4	0.0127451
3234.04	0.0146255
3243.68	0.0150129
3253.32	0.01594
3262.97	0.0146392
3272.61	0.0149378
3282.25	0.0145593
3291.89	0.012715
3301.53	0.0152926
3311.18	0.0135392
3320.82	0.016134
3330.46	0.0132678
3340.1	0.0167723
3349.75	0.0151842
3359.39	0.0151663
3369.03	0.0157374
3378.67	0.0158117
3388.32	0.0145662
3397.96	0.0165895
3407.6	0.011155
3417.24	0.0143852
3426.89	0.0160566
3436.53	0.015619
3446.17	0.0146318
3455.81	0.0146074
3465.45	0.0131227
3475.1	0.0138254
3484.74	0.0132211
3494.38	0.0169324
3504.02	0.0119092
3513.67	0.014671
3523.31	0.0153846
3532.95	0.0140727
3542.59	0.0133732
3552.24	0.0134524
3561.88	0.0113489
3571.52	0.0151966
3581.16	0.00829506
3590.8	0.0124317
3600.45	0.0113494
3610.09	0.0130065
3619.73	0.0125048
3629.37	0.0114356
3639.02	0.0104355
3648.66	0.0119424
3658.3	0.0120842
3667.94	0.0112516
3677.59	0.0102897
3687.23	0.010254
3696.87	0.00859276
3706.51	0.0132613
3716.16	0.0133638
3725.8	0.0109552
3735.44	0.014673
3745.08	0.0122636
3754.72	0.011189
3764.37	0.0116183
3774.01	0.00959534
3783.65	0.00944635
3793.29	0.00938118
3802.94	0.0118381
3812.58	0.0103146
3822.22	0.0163263
3831.86	0.00806465
3841.51	0.0107992
3851.15	0.011856
3860.79	0.00860919
3870.43	0.0103542
3880.07	0.0121304
3889.72	0.0110882
3899.36	0.00910796
3909	0.00859003
3918.64	0.00766484
3928.29	0.0118577
3937.93	0.0136558
3947.57	0.0129666
3957.21	0.0102997
3966.86	0.0116564
3976.5	0.0110518
3986.14	0.0125314
3995.78	0.00764656
