Measurement: Infrared, Infrared Data Processed
Mineral: Rinkite-(Ce)
Rruff sample: R050229
Ideal chemistry: (Ca_3_Ce^3+^)Na(NaCa)Ti^4+^(Si_2_O_7_)_2_(OF)F_2_
Locality: Kipawa alkaline complex, near Sheffield Lake, Villedieu Township, Temiscamingue County, Quebec, Canada
Source: Marcus Origlieri
Description: Aggregate of coarsely crystalline yellowish-gray crystals associated with red eudialyte R050230
x	intensity
50.1401	0.0110405
52.0686	0.00814592
53.9971	0.00538372
55.9255	0.00333362
57.854	0.00426453
59.7825	0.00616769
61.7109	0.00745985
63.6394	0.0071785
65.5679	0.00630042
67.4963	0.00809167
69.4248	0.00941203
71.3533	0.00889604
73.2817	0.00985084
75.2102	0.00936213
77.1387	0.00796333
79.0671	0.0083804
80.9956	0.00988819
82.9241	0.0105909
84.8525	0.0104819
86.781	0.0100289
88.7095	0.0107482
90.6379	0.0114038
92.5664	0.0112933
94.4948	0.0112527
96.4233	0.0113859
98.3518	0.0119091
100.28	0.0126032
102.209	0.0131308
104.137	0.0131742
106.066	0.0136319
107.994	0.0135612
109.923	0.0137061
111.851	0.0141373
113.779	0.013849
115.708	0.0145351
117.636	0.0152361
119.565	0.0152826
121.493	0.0150359
123.422	0.0156663
125.35	0.0162767
127.279	0.0165054
129.207	0.0168275
131.136	0.0174274
133.064	0.017728
134.993	0.0185897
136.921	0.0190012
138.85	0.018878
140.778	0.0190254
142.707	0.0194022
144.635	0.0192116
146.563	0.0189769
148.492	0.0188225
150.42	0.0193475
152.349	0.0206755
154.277	0.0213308
156.206	0.0213278
158.134	0.0209532
160.063	0.0213477
161.991	0.0218717
163.92	0.0220897
165.848	0.0220885
167.777	0.0228107
169.705	0.0234206
171.633	0.0232291
173.562	0.0234774
175.49	0.0228739
177.419	0.0231276
179.347	0.0236876
181.276	0.0234458
183.204	0.0241392
185.133	0.0248801
187.061	0.0249609
188.99	0.0251471
190.918	0.0253235
192.847	0.0253915
194.775	0.0254769
196.704	0.0258968
198.632	0.0262514
200.56	0.0262605
202.489	0.0262965
204.417	0.0269466
206.346	0.0271645
208.274	0.0269685
210.203	0.0274945
212.131	0.0276652
214.06	0.0279109
215.988	0.0282507
217.917	0.0283055
219.845	0.0284419
221.774	0.0283618
223.702	0.028609
225.631	0.0288079
227.559	0.0287195
229.488	0.0293345
231.416	0.0298866
233.344	0.0301002
235.273	0.0304367
237.201	0.0306533
239.13	0.030823
241.058	0.0308026
242.987	0.0307375
244.915	0.030565
246.844	0.0305295
248.772	0.030817
250.701	0.031374
252.629	0.0312773
254.558	0.031249
256.486	0.0318082
258.414	0.0320615
260.343	0.0321986
262.271	0.0324291
264.2	0.0322875
266.128	0.0322041
268.057	0.0324794
269.985	0.0327518
271.914	0.0328985
273.842	0.0331162
275.771	0.0330999
277.699	0.0325061
279.628	0.0323604
281.556	0.0327057
283.485	0.0331888
285.413	0.0337307
287.341	0.0337765
289.27	0.0337249
291.198	0.034082
293.127	0.0342926
295.055	0.0343805
296.984	0.0345351
298.912	0.0342673
300.841	0.0340175
302.769	0.0339298
304.698	0.034696
306.626	0.0351434
308.555	0.0350075
310.483	0.0349393
312.411	0.035188
314.34	0.0353809
316.269	0.035358
318.197	0.0352527
320.125	0.0356646
322.054	0.0356309
323.982	0.0353335
325.911	0.0355057
327.839	0.0353521
329.768	0.0354417
331.696	0.0357091
333.625	0.0358612
335.553	0.0355932
337.482	0.0356779
339.41	0.0358976
341.339	0.0356256
343.267	0.0354832
345.195	0.0356059
347.124	0.035661
349.052	0.0355513
350.981	0.0355715
352.909	0.0356206
354.838	0.0359017
356.766	0.0360517
358.695	0.0361632
360.623	0.0364587
362.552	0.0370433
364.48	0.0372372
366.409	0.0371242
368.337	0.0370363
370.265	0.0370765
372.194	0.0371657
374.122	0.0371213
376.051	0.0371845
377.979	0.0372539
379.908	0.0372012
381.836	0.03711
383.765	0.0369654
385.693	0.0368136
387.622	0.036592
389.55	0.036703
391.479	0.0366857
393.407	0.0365759
395.336	0.0364807
397.264	0.0361429
399.192	0.0359966
401.121	0.0361228
403.049	0.0360515
404.978	0.0362032
406.906	0.0364268
408.835	0.0364016
410.763	0.0363582
412.692	0.0363023
414.62	0.0363158
416.549	0.0366626
418.477	0.0366877
420.406	0.0368214
422.334	0.0371687
424.262	0.0376075
426.191	0.0378788
428.12	0.0379872
430.048	0.0381498
431.976	0.0384372
433.905	0.03857
435.833	0.0386383
437.762	0.0387427
439.69	0.0391233
441.619	0.039243
443.547	0.0392175
445.476	0.0392235
447.404	0.0396176
449.333	0.0400694
451.261	0.0402912
453.19	0.040183
455.118	0.0403932
457.046	0.0410165
458.975	0.0411996
460.903	0.0412086
462.832	0.0416313
464.76	0.0418195
466.689	0.0417999
468.617	0.0417106
470.546	0.041685
472.474	0.0418921
474.403	0.0421663
476.331	0.0421108
478.26	0.0421353
480.188	0.0421566
482.116	0.0420339
484.045	0.0421604
485.974	0.0422469
487.902	0.0420281
489.83	0.0421055
491.759	0.0420913
493.687	0.0418537
495.616	0.04167
497.544	0.0416793
499.473	0.0414856
501.401	0.0413089
503.33	0.0414088
505.258	0.0413213
507.187	0.0407317
509.115	0.0404105
511.043	0.0397199
512.972	0.0391935
514.9	0.0390588
516.829	0.0391498
518.757	0.0389138
520.686	0.0385678
522.614	0.0380991
524.543	0.037953
526.471	0.0378645
528.4	0.0374353
530.328	0.036981
532.257	0.0369596
534.185	0.036681
536.114	0.0360131
538.042	0.0356275
539.971	0.0357319
541.899	0.0353358
543.827	0.0350643
545.756	0.0348113
547.684	0.0346482
549.613	0.0344896
551.541	0.034265
553.47	0.0342039
555.398	0.03437
557.327	0.0344901
559.255	0.0345389
561.184	0.0345327
563.112	0.0343358
565.041	0.0341621
566.969	0.0340691
568.898	0.0340762
570.826	0.0343211
572.755	0.0345517
574.683	0.0346709
576.611	0.034723
578.54	0.0346877
580.468	0.0345098
582.397	0.0342117
584.325	0.0342266
586.254	0.0345018
588.182	0.0343933
590.111	0.0340063
592.039	0.0338974
593.968	0.0334686
595.896	0.0328451
597.824	0.0322762
599.753	0.0312283
601.682	0.0310571
603.61	0.030991
605.538	0.0300623
607.467	0.0297445
609.395	0.0299
611.324	0.0299688
613.252	0.0301363
615.181	0.0303142
617.109	0.0299389
619.038	0.0303624
620.966	0.0306431
622.894	0.0312621
624.823	0.0327614
626.751	0.0342118
628.68	0.0354804
630.608	0.0364968
632.537	0.0372088
634.465	0.0378296
636.394	0.038045
638.322	0.0382313
640.251	0.0384348
642.179	0.0388428
644.108	0.0395183
646.036	0.0398289
647.965	0.0397934
649.893	0.039955
651.822	0.0404727
653.75	0.0407328
655.678	0.0409101
657.607	0.0410459
659.535	0.0412641
661.464	0.0419522
663.392	0.0421091
665.321	0.0419463
667.249	0.0419304
669.178	0.0421125
671.106	0.0422411
673.035	0.0424942
674.963	0.0430684
676.892	0.0436888
678.82	0.0437454
680.749	0.0430669
682.677	0.0428463
684.606	0.0432148
686.534	0.0429347
688.462	0.0427733
690.391	0.0440054
692.319	0.0455549
694.248	0.0456083
696.176	0.045825
698.105	0.0462981
700.033	0.0455058
