Measurement: Infrared, Infrared Data Processed
Mineral: Rosasite
Rruff sample: R050294
Ideal chemistry: Cu^2+^Zn^2+^CO_3_(OH)_2_
Locality: 79 mine, 4th level, Hayden, Gila County, Arizona, USA
Source: George Godas, John Callahan
Description: Green botryoidal crust associated with intergrown smithsonite
Measured chemistry: (Cu_1.24_Zn_0.76_)_Î£=2_(CO_3_)(OH)_2_
x	intensity
399.193	0.0760124
408.835	0.0804278
418.477	0.0655079
428.12	0.0558031
437.762	0.0497119
447.404	0.0446064
457.047	0.0427737
466.689	0.0412473
476.331	0.0445429
485.974	0.0469999
495.616	0.045189
505.258	0.0437585
514.901	0.049513
524.543	0.0630925
534.185	0.0802101
543.828	0.0957243
553.47	0.108621
563.112	0.0751321
572.755	0.0531691
582.397	0.0459056
592.039	0.045013
601.682	0.0499178
611.324	0.0567902
620.966	0.0645306
630.609	0.0763757
640.251	0.0937068
649.893	0.115774
659.536	0.136109
669.178	0.139182
678.82	0.119841
688.463	0.103347
698.105	0.113811
707.747	0.126647
717.39	0.10774
727.032	0.123723
736.674	0.148918
746.317	0.095383
755.959	0.0716318
765.601	0.0820781
775.244	0.097284
784.886	0.116233
794.528	0.140453
804.171	0.176098
813.813	0.239646
823.455	0.263558
833.098	0.219867
842.74	0.227508
852.382	0.223901
862.025	0.201875
871.667	0.159664
881.309	0.108914
890.952	0.0822329
900.594	0.0674145
910.236	0.06043
919.879	0.057927
929.521	0.0585237
939.163	0.0595224
948.806	0.0591076
958.448	0.0590573
968.09	0.0605647
977.733	0.0645807
987.375	0.0717027
997.017	0.0828631
1006.66	0.100785
1016.3	0.126409
1025.94	0.161899
1035.59	0.211796
1045.23	0.231934
1054.87	0.169296
1064.51	0.0858556
1074.16	0.0520834
1083.8	0.0511142
1093.44	0.106541
1103.08	0.109641
1112.72	0.0669407
1122.37	0.0507846
1132.01	0.0460464
1141.65	0.0447803
1151.3	0.0449965
1160.94	0.0462602
1170.58	0.047683
1180.22	0.0495699
1189.86	0.0519683
1199.51	0.054969
1209.15	0.0577584
1218.79	0.0614934
1228.43	0.0653731
1238.08	0.0701573
1247.72	0.075517
1257.36	0.0818448
1267	0.0905386
1276.64	0.101238
1286.29	0.114115
1295.93	0.131365
1305.57	0.154332
1315.21	0.178138
1324.86	0.199349
1334.5	0.232313
1344.14	0.277647
1353.78	0.337006
1363.43	0.405736
1373.07	0.444721
1382.71	0.417043
1392.35	0.35218
1401.99	0.288618
1411.64	0.257482
1421.28	0.219765
1430.92	0.15851
1440.57	0.133412
1450.21	0.132349
1459.85	0.148363
1469.49	0.172715
1479.13	0.205459
1488.78	0.245438
1498.42	0.26974
1508.06	0.269936
1517.7	0.253523
1527.35	0.227249
1536.99	0.184916
1546.63	0.127876
1556.27	0.0774641
1565.91	0.0489557
1575.56	0.0359231
1585.2	0.0290211
1594.84	0.0254762
1604.48	0.0225962
1614.13	0.0207494
1623.77	0.018665
1633.41	0.0180437
1643.05	0.0169911
1652.7	0.0160369
1662.34	0.015108
1671.98	0.0148916
1681.62	0.013448
1691.27	0.0130622
1700.91	0.0129455
1710.55	0.0126976
1720.19	0.0133081
1729.84	0.013684
1739.48	0.0133421
1749.12	0.0134982
1758.76	0.0153149
1768.4	0.0163881
1778.05	0.0159177
1787.69	0.0168278
1797.33	0.0170049
1806.97	0.0171779
1816.62	0.0170586
1826.26	0.0169965
1835.9	0.0161626
1845.54	0.0145173
1855.18	0.0148334
1864.83	0.014023
1874.47	0.0138532
1884.11	0.0147429
1893.75	0.0138044
1903.4	0.0153511
1913.04	0.0147735
1922.68	0.0132269
1932.32	0.013529
1941.97	0.0153487
1951.61	0.0133637
1961.25	0.0172925
1970.89	0.0135219
1980.54	0.0134097
1990.18	0.01592
1999.82	0.0126157
2009.46	0.0148168
2019.11	0.0148049
2028.75	0.0149473
2038.39	0.0144893
2048.03	0.0150631
2057.67	0.0160607
2067.32	0.0170978
2076.96	0.0164546
2086.6	0.0140582
2096.24	0.0150341
2105.89	0.0159267
2115.53	0.0162522
2125.17	0.016454
2134.81	0.0194285
2144.45	0.0189264
2154.1	0.0180491
2163.74	0.0258799
2173.38	0.0222684
2183.02	0.0175863
2192.67	0.0179993
2202.31	0.0177095
2211.95	0.0179223
2221.59	0.0197276
2231.24	0.0211034
2240.88	0.0217113
2250.52	0.0227263
2260.16	0.0232197
2269.8	0.0224658
2279.45	0.0248153
2289.09	0.0259449
2298.73	0.0247807
2308.38	0.0255441
2318.02	0.0267066
2327.66	0.026708
2337.3	0.0281734
2346.94	0.0266676
2356.59	0.029376
2366.23	0.029046
2375.87	0.0270169
2385.51	0.0267918
2395.16	0.0279402
2404.8	0.0283097
2414.44	0.0270563
2424.08	0.0273193
2433.72	0.0279302
2443.37	0.0269572
2453.01	0.0286625
2462.65	0.0279387
2472.29	0.0267911
2481.94	0.0268014
2491.58	0.0286684
2501.22	0.0296287
2510.86	0.0286296
2520.51	0.0282185
2530.15	0.0288042
2539.79	0.0297922
2549.43	0.0287857
2559.07	0.0296354
2568.72	0.0288248
2578.36	0.0282639
2588	0.028552
2597.64	0.0284281
2607.29	0.0279674
2616.93	0.0289546
2626.57	0.0286027
2636.21	0.0288491
2645.86	0.0297338
2655.5	0.029589
2665.14	0.0282365
2674.78	0.0284888
2684.43	0.0284332
2694.07	0.0275131
2703.71	0.0291602
2713.35	0.028677
2722.99	0.0296224
2732.64	0.0286425
2742.28	0.0293969
2751.92	0.0300409
2761.56	0.0310265
2771.21	0.0313318
2780.85	0.0308693
2790.49	0.0327884
2800.13	0.0347841
2809.78	0.0345471
2819.42	0.0363849
2829.06	0.0369012
2838.7	0.0369878
2848.34	0.0390276
2857.99	0.0402852
2867.63	0.0389172
2877.27	0.039385
2886.91	0.0406222
2896.56	0.0424843
2906.2	0.044956
2915.84	0.0454986
2925.48	0.0432931
2935.13	0.0455744
2944.77	0.0441707
2954.41	0.0445673
2964.05	0.0455961
2973.7	0.0476469
2983.34	0.0447449
2992.98	0.0489716
3002.62	0.0517913
3012.26	0.0529589
3021.91	0.0550856
3031.55	0.0567945
3041.19	0.058674
3050.83	0.0606929
3060.48	0.0639673
3070.12	0.0669723
3079.76	0.0691001
3089.4	0.0723712
3099.05	0.0775148
3108.69	0.0813569
3118.33	0.0871425
3127.97	0.0919265
3137.61	0.0945017
3147.26	0.100399
3156.9	0.101943
3166.54	0.108595
3176.18	0.112771
3185.83	0.121019
3195.47	0.12688
3205.11	0.136528
3214.75	0.149582
3224.4	0.159666
3234.04	0.166626
3243.68	0.174348
3253.32	0.17254
3262.97	0.157695
3272.61	0.14093
3282.25	0.1327
3291.89	0.118678
3301.53	0.110695
3311.18	0.107388
3320.82	0.0975075
3330.46	0.0947064
3340.1	0.0925333
3349.75	0.089903
3359.39	0.089821
3369.03	0.0907895
3378.67	0.0880842
3388.32	0.0940955
3397.96	0.0971473
3407.6	0.101854
3417.24	0.105249
3426.89	0.109833
3436.53	0.111577
3446.17	0.111951
3455.81	0.119102
3465.45	0.126527
3475.1	0.139885
3484.74	0.154571
3494.38	0.165709
3504.02	0.140774
3513.67	0.0971223
3523.31	0.0676767
3532.95	0.0586899
3542.59	0.0424302
3552.24	0.0431776
3561.88	0.0403718
3571.52	0.0346385
3581.16	0.0373644
3590.8	0.0344651
3600.45	0.0310776
3610.09	0.0310528
3619.73	0.0276061
3629.37	0.0322824
3639.02	0.0273061
3648.66	0.0250958
3658.3	0.0267859
3667.94	0.0259835
3677.59	0.0278969
3687.23	0.0295339
3696.87	0.0314376
3706.51	0.0318433
3716.16	0.0324289
3725.8	0.0285814
3735.44	0.0302287
3745.08	0.0297514
3754.72	0.0304633
3764.37	0.0299507
3774.01	0.0288712
3783.65	0.0352205
3793.29	0.0325444
3802.94	0.0365615
3812.58	0.0331535
3822.22	0.0305194
3831.86	0.0284589
3841.51	0.0346596
3851.15	0.0336091
3860.79	0.0276518
3870.43	0.0337808
3880.07	0.0364835
3889.72	0.0314141
3899.36	0.0329306
3909	0.0321288
3918.64	0.0394646
3928.29	0.0310679
3937.93	0.0323189
3947.57	0.0379437
3957.21	0.0400977
3966.86	0.0375951
3976.5	0.0349482
3986.14	0.03335
3995.78	0.0398406
