Measurement: Infrared, Infrared Data Processed
Mineral: Rutile
Rruff sample: R040049
Ideal chemistry: Ti^4+^O_2_
Locality: Graves Mountain, Lincoln County, Georgia, USA
Source: University of Arizona Mineral Museum
Description: Reddish-black fragments
Measured chemistry: (Ti_1.00_Fe_0.01_)O_2_
x	intensity
399.193	0
408.835	0.158067
418.477	0.148349
428.12	0.144399
437.762	0.138042
447.404	0.142033
457.047	0.154874
466.689	0.164499
476.331	0.172038
485.974	0.17738
495.616	0.181832
505.258	0.182874
514.901	0.181661
524.543	0.178716
534.185	0.174636
543.828	0.17196
553.47	0.169081
563.112	0.166338
572.755	0.164375
582.397	0.161338
592.039	0.158944
601.682	0.154944
611.324	0.151392
620.966	0.147169
630.609	0.142405
640.251	0.137787
649.893	0.132771
659.536	0.128185
669.178	0.1231
678.82	0.118079
688.463	0.112967
698.105	0.107976
707.747	0.102475
717.39	0.0963427
727.032	0.0905294
736.674	0.0837639
746.317	0.0770974
755.959	0.0701262
765.601	0.0640468
775.244	0.0574628
784.886	0.0510668
794.528	0.0452767
804.171	0.0400391
813.813	0.0354448
823.455	0.0315648
833.098	0.0281734
842.74	0.025331
852.382	0.0232592
862.025	0.0214818
871.667	0.0204684
881.309	0.0197997
890.952	0.0184507
900.594	0.018031
910.236	0.0169219
919.879	0.0159959
929.521	0.0154978
939.163	0.014924
948.806	0.0145041
958.448	0.0144446
968.09	0.0139961
977.733	0.0138661
987.375	0.013373
997.017	0.0130972
1006.66	0.0132616
1016.3	0.0134276
1025.94	0.0139494
1035.59	0.0137948
1045.23	0.014166
1054.87	0.0144913
1064.51	0.015004
1074.16	0.0155183
1083.8	0.015961
1093.44	0.0170041
1103.08	0.0179699
1112.72	0.0187802
1122.37	0.0200256
1132.01	0.0204646
1141.65	0.020923
1151.3	0.0219002
1160.94	0.0225492
1170.58	0.0232034
1180.22	0.0244578
1189.86	0.0252001
1199.51	0.0266264
1209.15	0.0277399
1218.79	0.0290405
1228.43	0.0301771
1238.08	0.0317226
1247.72	0.0328372
1257.36	0.0340558
1267	0.0353457
1276.64	0.0364193
1286.29	0.0378787
1295.93	0.0390283
1305.57	0.0401738
1315.21	0.0416953
1324.86	0.0429366
1334.5	0.0447836
1344.14	0.0456234
1353.78	0.0471326
1363.43	0.0483419
1373.07	0.0499082
1382.71	0.0512081
1392.35	0.0526235
1401.99	0.0541503
1411.64	0.0557123
1421.28	0.0571196
1430.92	0.0581535
1440.57	0.0594452
1450.21	0.0606339
1459.85	0.0619753
1469.49	0.0626769
1479.13	0.063991
1488.78	0.064663
1498.42	0.0660982
1508.06	0.0673006
1517.7	0.0685722
1527.35	0.0695763
1536.99	0.0703879
1546.63	0.0716081
1556.27	0.0726616
1565.91	0.0738764
1575.56	0.0746262
1585.2	0.0757736
1594.84	0.0768264
1604.48	0.077748
1614.13	0.0786155
1623.77	0.0795669
1633.41	0.0808582
1643.05	0.0816029
1652.7	0.0825702
1662.34	0.0830357
1671.98	0.0839129
1681.62	0.0848687
1691.27	0.0856718
1700.91	0.0869209
1710.55	0.0876839
1720.19	0.0883457
1729.84	0.0887618
1739.48	0.0891185
1749.12	0.0897637
1758.76	0.090566
1768.4	0.0907618
1778.05	0.0914916
1787.69	0.0923139
1797.33	0.0928315
1806.97	0.0932996
1816.62	0.0937565
1826.26	0.0949364
1835.9	0.0949301
1845.54	0.0959707
1855.18	0.0964215
1864.83	0.0960856
1874.47	0.0977951
1884.11	0.0983876
1893.75	0.0995221
1903.4	0.099019
1913.04	0.100467
1922.68	0.0994052
1932.32	0.0997408
1941.97	0.0994524
1951.61	0.101563
1961.25	0.0996351
1970.89	0.101701
1980.54	0.103931
1990.18	0.102699
1999.82	0.102589
2009.46	0.101095
2019.11	0.104079
2028.75	0.101449
2038.39	0.104452
2048.03	0.104992
2057.67	0.107927
2067.32	0.107395
2076.96	0.108639
2086.6	0.110232
2096.24	0.110312
2105.89	0.10914
2115.53	0.11093
2125.17	0.111533
2134.81	0.109681
2144.45	0.109722
2154.1	0.10903
2163.74	0.111069
2173.38	0.109504
2183.02	0.109345
2192.67	0.114439
2202.31	0.114944
2211.95	0.115005
2221.59	0.115645
2231.24	0.115041
2240.88	0.116667
2250.52	0.116476
2260.16	0.118311
2269.8	0.118358
2279.45	0.1194
2289.09	0.121168
2298.73	0.120604
2308.38	0.121194
2318.02	0.122069
2327.66	0.122132
2337.3	0.12276
2346.94	0.122646
2356.59	0.123157
2366.23	0.123551
2375.87	0.123195
2385.51	0.123881
2395.16	0.123615
2404.8	0.123421
2414.44	0.124234
2424.08	0.124562
2433.72	0.125074
2443.37	0.126267
2453.01	0.12613
2462.65	0.125359
2472.29	0.126131
2481.94	0.126611
2491.58	0.12644
2501.22	0.127279
2510.86	0.127831
2520.51	0.127435
2530.15	0.12698
2539.79	0.128439
2549.43	0.128889
2559.07	0.129084
2568.72	0.128665
2578.36	0.12893
2588	0.130722
2597.64	0.130086
2607.29	0.131664
2616.93	0.131856
2626.57	0.132196
2636.21	0.133268
2645.86	0.133352
2655.5	0.134225
2665.14	0.134539
2674.78	0.134529
2684.43	0.134389
2694.07	0.134707
2703.71	0.135121
2713.35	0.135412
2722.99	0.135547
2732.64	0.136417
2742.28	0.135582
2751.92	0.13683
2761.56	0.136881
2771.21	0.137444
2780.85	0.137611
2790.49	0.137168
2800.13	0.137817
2809.78	0.138281
2819.42	0.138971
2829.06	0.139185
2838.7	0.139769
2848.34	0.139103
2857.99	0.140449
2867.63	0.139786
2877.27	0.140442
2886.91	0.140369
2896.56	0.14145
2906.2	0.141274
2915.84	0.14205
2925.48	0.141069
2935.13	0.141708
2944.77	0.140757
2954.41	0.141654
2964.05	0.141517
2973.7	0.141879
2983.34	0.14138
2992.98	0.141697
3002.62	0.142463
3012.26	0.142734
3021.91	0.142087
3031.55	0.143346
3041.19	0.142787
3050.83	0.143251
3060.48	0.144378
3070.12	0.144098
3079.76	0.14506
3089.4	0.145208
3099.05	0.145973
3108.69	0.14631
3118.33	0.144676
3127.97	0.145909
3137.61	0.145573
3147.26	0.147377
3156.9	0.146744
3166.54	0.147042
3176.18	0.14585
3185.83	0.146811
3195.47	0.148064
3205.11	0.148294
3214.75	0.147279
3224.4	0.148039
3234.04	0.147924
3243.68	0.147831
3253.32	0.148257
3262.97	0.149476
3272.61	0.149798
3282.25	0.1479
3291.89	0.150259
3301.53	0.15061
3311.18	0.150289
3320.82	0.150575
3330.46	0.149725
3340.1	0.150094
3349.75	0.151307
3359.39	0.151001
3369.03	0.150906
3378.67	0.150309
3388.32	0.150872
3397.96	0.151147
3407.6	0.151462
3417.24	0.149167
3426.89	0.152756
3436.53	0.153833
3446.17	0.152987
3455.81	0.151887
3465.45	0.153554
3475.1	0.152184
3484.74	0.151838
3494.38	0.153315
3504.02	0.152619
3513.67	0.152381
3523.31	0.153579
3532.95	0.152559
3542.59	0.153548
3552.24	0.153642
3561.88	0.153126
3571.52	0.153303
3581.16	0.154732
3590.8	0.154997
3600.45	0.156347
3610.09	0.155876
3619.73	0.155382
3629.37	0.157937
3639.02	0.154608
3648.66	0.155975
3658.3	0.157425
3667.94	0.158762
3677.59	0.157037
3687.23	0.155561
3696.87	0.156507
3706.51	0.154274
3716.16	0.160221
3725.8	0.156757
3735.44	0.158412
3745.08	0.160518
3754.72	0.160059
3764.37	0.158268
3774.01	0.158748
3783.65	0.160538
3793.29	0.158857
3802.94	0.161591
3812.58	0.16337
3822.22	0.165587
3831.86	0.162945
3841.51	0.162384
3851.15	0.162042
3860.79	0.164997
3870.43	0.16318
3880.07	0.16377
3889.72	0.163067
3899.36	0.164558
3909	0.162347
3918.64	0.164123
3928.29	0.166714
3937.93	0.163828
3947.57	0.165551
3957.21	0.162298
3966.86	0.167392
3976.5	0.163687
3986.14	0.165943
3995.78	0.163803
