Measurement: Infrared, Infrared Data Processed
Mineral: Rutile
Rruff sample: R050031
Ideal chemistry: Ti^4+^O_2_
Locality: Chester City, Pennsylvannia, USA
Source: University of Arizona Mineral Museum
Description: Reddish brown single crystal fragment
Measured chemistry: TiO_2_
x	intensity
399.193	0.26187
408.835	0.240811
418.477	0.228031
428.12	0.224263
437.762	0.228774
447.404	0.25323
457.047	0.29019
466.689	0.31373
476.331	0.332369
485.974	0.339188
495.616	0.336998
505.258	0.326818
514.901	0.311503
524.543	0.295084
534.185	0.281785
543.828	0.274851
553.47	0.270074
563.112	0.265442
572.755	0.261405
582.397	0.256675
592.039	0.248815
601.682	0.241495
611.324	0.234156
620.966	0.224382
630.609	0.215975
640.251	0.207403
649.893	0.199129
659.536	0.191168
669.178	0.183767
678.82	0.176092
688.463	0.167798
698.105	0.160012
707.747	0.15263
717.39	0.143578
727.032	0.134012
736.674	0.124584
746.317	0.114978
755.959	0.105413
765.601	0.0962315
775.244	0.0874546
784.886	0.0792891
794.528	0.0718434
804.171	0.0648858
813.813	0.0585034
823.455	0.0529394
833.098	0.048438
842.74	0.0447214
852.382	0.0420814
862.025	0.0401668
871.667	0.0391277
881.309	0.0383541
890.952	0.0366882
900.594	0.0358082
910.236	0.0343668
919.879	0.0327293
929.521	0.0313786
939.163	0.0303402
948.806	0.0298349
958.448	0.0300894
968.09	0.0303095
977.733	0.029575
987.375	0.0285947
997.017	0.0281689
1006.66	0.0280676
1016.3	0.0277077
1025.94	0.0271307
1035.59	0.0274781
1045.23	0.0277567
1054.87	0.0283423
1064.51	0.029517
1074.16	0.0298693
1083.8	0.0296776
1093.44	0.0298729
1103.08	0.0301738
1112.72	0.0300772
1122.37	0.0301849
1132.01	0.0305518
1141.65	0.0311407
1151.3	0.0320715
1160.94	0.0327804
1170.58	0.0339067
1180.22	0.0349075
1189.86	0.0365358
1199.51	0.0379502
1209.15	0.0390756
1218.79	0.0404881
1228.43	0.0422215
1238.08	0.0440174
1247.72	0.0457634
1257.36	0.0475682
1267	0.0494673
1276.64	0.0515316
1286.29	0.0534525
1295.93	0.0553491
1305.57	0.0576113
1315.21	0.0601526
1324.86	0.0622689
1334.5	0.0646668
1344.14	0.0670152
1353.78	0.0696535
1363.43	0.0722698
1373.07	0.0745892
1382.71	0.0772603
1392.35	0.0803061
1401.99	0.0832447
1411.64	0.0862793
1421.28	0.0890058
1430.92	0.0917566
1440.57	0.0939605
1450.21	0.0959492
1459.85	0.0977715
1469.49	0.0991742
1479.13	0.100415
1488.78	0.102297
1498.42	0.104409
1508.06	0.107047
1517.7	0.109057
1527.35	0.111558
1536.99	0.114038
1546.63	0.116282
1556.27	0.118568
1565.91	0.120694
1575.56	0.123195
1585.2	0.125418
1594.84	0.127487
1604.48	0.129414
1614.13	0.13194
1623.77	0.13359
1633.41	0.13538
1643.05	0.137281
1652.7	0.139159
1662.34	0.140544
1671.98	0.141967
1681.62	0.143555
1691.27	0.145061
1700.91	0.146168
1710.55	0.147382
1720.19	0.149852
1729.84	0.151762
1739.48	0.15308
1749.12	0.153844
1758.76	0.155414
1768.4	0.157297
1778.05	0.159073
1787.69	0.160497
1797.33	0.161997
1806.97	0.163921
1816.62	0.165205
1826.26	0.167725
1835.9	0.169423
1845.54	0.170963
1855.18	0.172707
1864.83	0.174268
1874.47	0.175761
1884.11	0.17697
1893.75	0.178529
1903.4	0.18082
1913.04	0.182629
1922.68	0.18368
1932.32	0.185531
1941.97	0.187034
1951.61	0.18923
1961.25	0.190533
1970.89	0.192068
1980.54	0.194794
1990.18	0.195633
1999.82	0.194533
2009.46	0.19582
2019.11	0.197113
2028.75	0.199239
2038.39	0.201026
2048.03	0.202671
2057.67	0.203535
2067.32	0.203038
2076.96	0.20539
2086.6	0.207295
2096.24	0.207399
2105.89	0.209306
2115.53	0.210049
2125.17	0.209746
2134.81	0.212161
2144.45	0.211989
2154.1	0.211587
2163.74	0.219235
2173.38	0.216439
2183.02	0.218749
2192.67	0.219099
2202.31	0.221065
2211.95	0.219679
2221.59	0.222923
2231.24	0.222112
2240.88	0.223713
2250.52	0.223615
2260.16	0.22652
2269.8	0.228774
2279.45	0.228095
2289.09	0.228818
2298.73	0.228667
2308.38	0.230633
2318.02	0.231668
2327.66	0.23055
2337.3	0.231938
2346.94	0.23258
2356.59	0.233852
2366.23	0.233565
2375.87	0.234606
2385.51	0.236158
2395.16	0.236839
2404.8	0.238306
2414.44	0.239493
2424.08	0.240106
2433.72	0.241721
2443.37	0.242265
2453.01	0.243037
2462.65	0.244717
2472.29	0.244116
2481.94	0.245721
2491.58	0.246698
2501.22	0.246968
2510.86	0.248134
2520.51	0.248636
2530.15	0.248228
2539.79	0.250359
2549.43	0.251398
2559.07	0.252472
2568.72	0.252317
2578.36	0.253443
2588	0.253745
2597.64	0.255552
2607.29	0.255787
2616.93	0.255727
2626.57	0.257409
2636.21	0.257843
2645.86	0.258602
2655.5	0.259117
2665.14	0.259242
2674.78	0.259725
2684.43	0.261318
2694.07	0.261012
2703.71	0.262445
2713.35	0.262239
2722.99	0.263207
2732.64	0.264547
2742.28	0.265769
2751.92	0.26679
2761.56	0.266594
2771.21	0.267839
2780.85	0.268932
2790.49	0.268699
2800.13	0.270653
2809.78	0.27064
2819.42	0.272325
2829.06	0.273243
2838.7	0.274631
2848.34	0.273554
2857.99	0.274379
2867.63	0.274868
2877.27	0.276399
2886.91	0.276454
2896.56	0.277886
2906.2	0.277732
2915.84	0.277391
2925.48	0.276247
2935.13	0.276119
2944.77	0.278621
2954.41	0.279119
2964.05	0.278948
2973.7	0.280652
2983.34	0.280562
2992.98	0.281679
3002.62	0.282078
3012.26	0.283565
3021.91	0.284585
3031.55	0.2844
3041.19	0.285564
3050.83	0.286381
3060.48	0.287198
3070.12	0.288214
3079.76	0.288538
3089.4	0.289591
3099.05	0.29099
3108.69	0.290549
3118.33	0.291376
3127.97	0.291818
3137.61	0.291534
3147.26	0.29338
3156.9	0.293038
3166.54	0.295354
3176.18	0.295221
3185.83	0.29551
3195.47	0.295372
3205.11	0.294931
3214.75	0.296696
3224.4	0.298227
3234.04	0.297126
3243.68	0.297667
3253.32	0.298228
3262.97	0.299408
3272.61	0.299539
3282.25	0.30014
3291.89	0.301256
3301.53	0.300222
3311.18	0.300854
3320.82	0.301392
3330.46	0.300027
3340.1	0.301547
3349.75	0.301214
3359.39	0.302201
3369.03	0.303663
3378.67	0.302456
3388.32	0.302806
3397.96	0.30301
3407.6	0.303305
3417.24	0.303704
3426.89	0.304326
3436.53	0.303714
3446.17	0.303779
3455.81	0.303693
3465.45	0.304072
3475.1	0.305657
3484.74	0.305233
3494.38	0.305597
3504.02	0.304579
3513.67	0.308146
3523.31	0.307384
3532.95	0.306672
3542.59	0.308086
3552.24	0.307767
3561.88	0.308407
3571.52	0.309681
3581.16	0.30886
3590.8	0.309907
3600.45	0.309417
3610.09	0.309488
3619.73	0.308615
3629.37	0.312024
3639.02	0.311484
3648.66	0.310864
3658.3	0.311061
3667.94	0.311281
3677.59	0.312659
3687.23	0.313975
3696.87	0.313586
3706.51	0.314283
3716.16	0.315667
3725.8	0.315726
3735.44	0.314973
3745.08	0.316582
3754.72	0.316647
3764.37	0.318622
3774.01	0.317449
3783.65	0.319576
3793.29	0.319874
3802.94	0.318833
3812.58	0.319607
3822.22	0.320677
3831.86	0.322939
3841.51	0.32237
3851.15	0.322284
3860.79	0.322114
3870.43	0.32374
3880.07	0.324483
3889.72	0.323366
3899.36	0.323628
3909	0.324821
3918.64	0.323812
3928.29	0.32492
3937.93	0.326815
3947.57	0.324662
3957.21	0.32493
3966.86	0.328841
3976.5	0.329896
3986.14	0.332451
3995.78	0.331675
