Measurement: Infrared, Infrared Data Processed
Mineral: Sanbornite
Rruff sample: R050001
Ideal chemistry: BaSi_2_O_5_
Locality: Empire #1 mine, Fresno County, California, USA
Source: University of Arizona Mineral Museum
Description: An aggregate of white to colorless pearly anhedral plates
Measured chemistry: Ba_1.00_Si_2.00_O_5_
x	intensity
399.193	0.0687801
408.835	0.0633519
418.477	0.080795
428.12	0.117359
437.762	0.125532
447.404	0.159342
457.047	0.192189
466.689	0.169853
476.331	0.183696
485.974	0.135238
495.616	0.0932602
505.258	0.0549229
514.901	0.0685729
524.543	0.107071
534.185	0.0937312
543.828	0.083564
553.47	0.0461748
563.112	0.0226265
572.755	0.0156147
582.397	0.0155852
592.039	0.0153478
601.682	0.0155526
611.324	0.0172313
620.966	0.0183049
630.609	0.0201836
640.251	0.0232338
649.893	0.0275032
659.536	0.0340559
669.178	0.0457056
678.82	0.0638217
688.463	0.0791521
698.105	0.0477362
707.747	0.0243444
717.39	0.0221856
727.032	0.0260444
736.674	0.0340422
746.317	0.0585927
755.959	0.101416
765.601	0.061598
775.244	0.0387191
784.886	0.0475465
794.528	0.0668092
804.171	0.0500287
813.813	0.0293709
823.455	0.0264884
833.098	0.0274262
842.74	0.0309827
852.382	0.0401811
862.025	0.0482353
871.667	0.050383
881.309	0.0584527
890.952	0.0697222
900.594	0.0842155
910.236	0.101501
919.879	0.121802
929.521	0.144434
939.163	0.169938
948.806	0.19939
958.448	0.233055
968.09	0.269934
977.733	0.260823
987.375	0.25705
997.017	0.265898
1006.66	0.223075
1016.3	0.181565
1025.94	0.148751
1035.59	0.114377
1045.23	0.0754735
1054.87	0.0875692
1064.51	0.113216
1074.16	0.180527
1083.8	0.245658
1093.44	0.174453
1103.08	0.115612
1112.72	0.0898843
1122.37	0.0828703
1132.01	0.0793517
1141.65	0.0750299
1151.3	0.0658885
1160.94	0.0492926
1170.58	0.0326273
1180.22	0.0230554
1189.86	0.0200134
1199.51	0.0185918
1209.15	0.0170715
1218.79	0.0161375
1228.43	0.014941
1238.08	0.0131524
1247.72	0.010803
1257.36	0.00801635
1267	0.0067715
1276.64	0.00642108
1286.29	0.00602661
1295.93	0.00642245
1305.57	0.0059708
1315.21	0.00619513
1324.86	0.00619344
1334.5	0.00670336
1344.14	0.0072333
1353.78	0.00770032
1363.43	0.00837958
1373.07	0.0093255
1382.71	0.0105103
1392.35	0.0119432
1401.99	0.014277
1411.64	0.0167212
1421.28	0.0266645
1430.92	0.0365405
1440.57	0.0387283
1450.21	0.0355409
1459.85	0.030656
1469.49	0.026785
1479.13	0.0235287
1488.78	0.0206332
1498.42	0.0177467
1508.06	0.0127993
1517.7	0.00821366
1527.35	0.00752381
1536.99	0.00762165
1546.63	0.00769013
1556.27	0.00775803
1565.91	0.00807206
1575.56	0.00802736
1585.2	0.00865771
1594.84	0.00826592
1604.48	0.00822924
1614.13	0.00814457
1623.77	0.00796214
1633.41	0.00796039
1643.05	0.00776992
1652.7	0.00773175
1662.34	0.00778383
1671.98	0.00764438
1681.62	0.00779891
1691.27	0.007752
1700.91	0.00722951
1710.55	0.00731025
1720.19	0.00724664
1729.84	0.00721377
1739.48	0.00686007
1749.12	0.00784297
1758.76	0.00679034
1768.4	0.00661955
1778.05	0.00631905
1787.69	0.00633008
1797.33	0.00589572
1806.97	0.0057825
1816.62	0.00576475
1826.26	0.00608571
1835.9	0.00577813
1845.54	0.00565734
1855.18	0.00576428
1864.83	0.00499087
1874.47	0.00475227
1884.11	0.0039339
1893.75	0.00412326
1903.4	0.00413863
1913.04	0.00360109
1922.68	0.00237018
1932.32	0.00184887
1941.97	0.00100727
1951.61	0.000382586
1961.25	-0.00140091
1970.89	-0.000861287
1980.54	0.00128885
1990.18	-0.000690418
1999.82	-0.000363156
2009.46	0.000123575
2019.11	-0.000146308
2028.75	0.00060956
2038.39	0.00204856
2048.03	0.00392334
2057.67	0.00473376
2067.32	0.00422175
2076.96	0.00639165
2086.6	0.00665553
2096.24	0.00648766
2105.89	0.00666455
2115.53	0.00557072
2125.17	0.00436965
2134.81	0.00267521
2144.45	0.00128483
2154.1	-0.00400137
2163.74	0.00101761
2173.38	0.000565698
2183.02	0.000302671
2192.67	0.00325777
2202.31	0.00471712
2211.95	0.00500946
2221.59	0.00709976
2231.24	0.00591574
2240.88	0.00559359
2250.52	0.00613629
2260.16	0.00724034
2269.8	0.00815136
2279.45	0.00941579
2289.09	0.00927295
2298.73	0.00939439
2308.38	0.0103107
2318.02	0.0104232
2327.66	0.00895926
2337.3	0.00874307
2346.94	0.00932242
2356.59	0.00955256
2366.23	0.00829499
2375.87	0.00848173
2385.51	0.00852571
2395.16	0.00853456
2404.8	0.00960217
2414.44	0.00939667
2424.08	0.00923456
2433.72	0.00971948
2443.37	0.00910995
2453.01	0.0110839
2462.65	0.011076
2472.29	0.00955169
2481.94	0.00964042
2491.58	0.0101788
2501.22	0.010461
2510.86	0.0107819
2520.51	0.0104159
2530.15	0.00983957
2539.79	0.0110936
2549.43	0.0104639
2559.07	0.0107518
2568.72	0.010703
2578.36	0.010299
2588	0.0111872
2597.64	0.0110952
2607.29	0.0119589
2616.93	0.0113425
2626.57	0.0113691
2636.21	0.0114982
2645.86	0.0117035
2655.5	0.0119174
2665.14	0.0109838
2674.78	0.0104587
2684.43	0.0108064
2694.07	0.0109362
2703.71	0.0105098
2713.35	0.0100252
2722.99	0.0113575
2732.64	0.0118664
2742.28	0.0115082
2751.92	0.0117866
2761.56	0.0116279
2771.21	0.0112785
2780.85	0.0120681
2790.49	0.012111
2800.13	0.0117632
2809.78	0.0117311
2819.42	0.0124326
2829.06	0.0126835
2838.7	0.0131859
2848.34	0.0126668
2857.99	0.012284
2867.63	0.0119617
2877.27	0.0127062
2886.91	0.0126156
2896.56	0.0133148
2906.2	0.013679
2915.84	0.0145643
2925.48	0.0140386
2935.13	0.0125461
2944.77	0.0139964
2954.41	0.0124401
2964.05	0.0123756
2973.7	0.0125725
2983.34	0.0136247
2992.98	0.0131997
3002.62	0.0138116
3012.26	0.0133335
3021.91	0.0136443
3031.55	0.0144314
3041.19	0.0135853
3050.83	0.0131193
3060.48	0.0155637
3070.12	0.0142552
3079.76	0.0142588
3089.4	0.0147919
3099.05	0.0152354
3108.69	0.0144113
3118.33	0.0148306
3127.97	0.0142604
3137.61	0.0149826
3147.26	0.0165854
3156.9	0.0165443
3166.54	0.0150897
3176.18	0.0159897
3185.83	0.0160459
3195.47	0.0174815
3205.11	0.015878
3214.75	0.0162401
3224.4	0.0164858
3234.04	0.0174143
3243.68	0.0159665
3253.32	0.0168478
3262.97	0.0163183
3272.61	0.0165195
3282.25	0.0169295
3291.89	0.0172424
3301.53	0.017533
3311.18	0.0163401
3320.82	0.018656
3330.46	0.0161433
3340.1	0.0182143
3349.75	0.0171697
3359.39	0.0183214
3369.03	0.0186067
3378.67	0.0182752
3388.32	0.0183468
3397.96	0.0177176
3407.6	0.0178717
3417.24	0.0171299
3426.89	0.0178919
3436.53	0.01691
3446.17	0.0167944
3455.81	0.0169967
3465.45	0.0180045
3475.1	0.0179465
3484.74	0.0173593
3494.38	0.0158909
3504.02	0.0157207
3513.67	0.0160505
3523.31	0.017249
3532.95	0.0153184
3542.59	0.0154443
3552.24	0.0159126
3561.88	0.015573
3571.52	0.0171897
3581.16	0.0134135
3590.8	0.0165298
3600.45	0.016258
3610.09	0.0155112
3619.73	0.0134816
3629.37	0.0154366
3639.02	0.0147427
3648.66	0.0158164
3658.3	0.0134687
3667.94	0.0140884
3677.59	0.0144206
3687.23	0.014221
3696.87	0.0140399
3706.51	0.0115479
3716.16	0.0132717
3725.8	0.0130171
3735.44	0.0121551
3745.08	0.0134286
3754.72	0.0124632
3764.37	0.0131709
3774.01	0.01245
3783.65	0.0146509
3793.29	0.0131311
3802.94	0.0133209
3812.58	0.0150708
3822.22	0.0146468
3831.86	0.0145521
3841.51	0.0138316
3851.15	0.0124157
3860.79	0.011409
3870.43	0.0139639
3880.07	0.0124918
3889.72	0.014489
3899.36	0.0128042
3909	0.0120037
3918.64	0.0131051
3928.29	0.013264
3937.93	0.011289
3947.57	0.0127777
3957.21	0.0136606
3966.86	0.0136719
3976.5	0.01496
3986.14	0.014887
3995.78	0.0152067
