Measurement: Infrared, Infrared Data Processed
Mineral: Sanidine
Rruff sample: R060313
Ideal chemistry: KAlSi_3_O_8_
Locality: Eifel Mountains, Rhineland-Palatinate, Germany
Source: Herb Obodda
Description: Pale yellow transparent cleavage fragment. Crystal structure given below.
Measured chemistry: (K_0.85_Na_0.14_Ba_0.01_)_Î£=1_Al_1.04_Si_2.96_O_8_
x	intensity
399.193	0
408.835	0.259392
418.477	0.256071
428.12	0.215522
437.762	0.156376
447.404	0.105375
457.047	0.0761175
466.689	0.063512
476.331	0.0486162
485.974	0.0398986
495.616	0.0359057
505.258	0.0398609
514.901	0.0454867
524.543	0.0555701
534.185	0.0954106
543.828	0.158745
553.47	0.125266
563.112	0.150349
572.755	0.186658
582.397	0.187537
592.039	0.155895
601.682	0.116368
611.324	0.0849135
620.966	0.0657005
630.609	0.071739
640.251	0.0826369
649.893	0.0485266
659.536	0.0364694
669.178	0.0353619
678.82	0.0382754
688.463	0.0456009
698.105	0.0634584
707.747	0.0795606
717.39	0.0856557
727.032	0.0848636
736.674	0.078738
746.317	0.0745347
755.959	0.0730851
765.601	0.0736466
775.244	0.0720288
784.886	0.0648669
794.528	0.0516247
804.171	0.0332898
813.813	0.0232221
823.455	0.0208757
833.098	0.0221682
842.74	0.0249142
852.382	0.0286601
862.025	0.0341711
871.667	0.0403663
881.309	0.0482319
890.952	0.058413
900.594	0.072379
910.236	0.0912396
919.879	0.118898
929.521	0.158243
939.163	0.212191
948.806	0.28094
958.448	0.355339
968.09	0.419217
977.733	0.458592
987.375	0.474547
997.017	0.473297
1006.66	0.456913
1016.3	0.428968
1025.94	0.398699
1035.59	0.364113
1045.23	0.320924
1054.87	0.270056
1064.51	0.217606
1074.16	0.192388
1083.8	0.185861
1093.44	0.186802
1103.08	0.185577
1112.72	0.183199
1122.37	0.179573
1132.01	0.168846
1141.65	0.145911
1151.3	0.118073
1160.94	0.0920426
1170.58	0.0700654
1180.22	0.0519796
1189.86	0.0368902
1199.51	0.0251339
1209.15	0.017676
1218.79	0.0134652
1228.43	0.0109803
1238.08	0.00888584
1247.72	0.0075023
1257.36	0.00611856
1267	0.00495502
1276.64	0.00467814
1286.29	0.00378774
1295.93	0.00369385
1305.57	0.00336796
1315.21	0.00340398
1324.86	0.00310058
1334.5	0.00262786
1344.14	0.00268438
1353.78	0.00264803
1363.43	0.00243976
1373.07	0.00243324
1382.71	0.00266075
1392.35	0.00256589
1401.99	0.00279622
1411.64	0.00269713
1421.28	0.00322973
1430.92	0.00325434
1440.57	0.00312169
1450.21	0.00339878
1459.85	0.0033664
1469.49	0.0034436
1479.13	0.00327145
1488.78	0.0032072
1498.42	0.00318195
1508.06	0.00323019
1517.7	0.00299598
1527.35	0.00289049
1536.99	0.00292503
1546.63	0.00325569
1556.27	0.00332723
1565.91	0.00379671
1575.56	0.00403432
1585.2	0.00408023
1594.84	0.0045471
1604.48	0.00454171
1614.13	0.00481863
1623.77	0.00477527
1633.41	0.00463493
1643.05	0.00462819
1652.7	0.00475002
1662.34	0.00491013
1671.98	0.00416475
1681.62	0.00423295
1691.27	0.00397021
1700.91	0.00509403
1710.55	0.00388198
1720.19	0.00420719
1729.84	0.00477213
1739.48	0.00380002
1749.12	0.00381453
1758.76	0.00376882
1768.4	0.00387999
1778.05	0.00333308
1787.69	0.00377853
1797.33	0.00332087
1806.97	0.0031264
1816.62	0.00252875
1826.26	0.00282854
1835.9	0.00214932
1845.54	0.00209123
1855.18	0.00181839
1864.83	0.00111724
1874.47	0.00122109
1884.11	0.000418534
1893.75	0.000350371
1903.4	-0.000100907
1913.04	-0.000620673
1922.68	-0.00186661
1932.32	-0.00278362
1941.97	-0.00386693
1951.61	-0.00424326
1961.25	-0.00551869
1970.89	-0.00700985
1980.54	-0.00382251
1990.18	-0.00498536
1999.82	-0.00739572
2009.46	-0.00807871
2019.11	-0.00691737
2028.75	-0.0093111
2038.39	-0.00668422
2048.03	-0.00551448
2057.67	-0.00520025
2067.32	-0.00387906
2076.96	-0.00268709
2086.6	-0.00235583
2096.24	-0.00306669
2105.89	-0.00317508
2115.53	-0.00306804
2125.17	-0.004257
2134.81	-0.00570651
2144.45	-0.00800362
2154.1	-0.0116333
2163.74	-0.00369823
2173.38	-0.00438279
2183.02	-0.0050862
2192.67	-0.00274305
2202.31	-0.00261747
2211.95	-0.00292852
2221.59	-0.00301265
2231.24	-0.00184103
2240.88	-0.00138164
2250.52	-0.00268232
2260.16	-0.000447805
2269.8	0.00111096
2279.45	0.0011876
2289.09	0.00106766
2298.73	0.00181784
2308.38	0.00390862
2318.02	0.00293737
2327.66	0.00299723
2337.3	0.00293203
2346.94	0.00315147
2356.59	0.0032155
2366.23	0.00229633
2375.87	0.00314805
2385.51	0.00277744
2395.16	0.00245361
2404.8	0.00293995
2414.44	0.00364429
2424.08	0.00315675
2433.72	0.00421422
2443.37	0.00460814
2453.01	0.00461902
2462.65	0.00325254
2472.29	0.00320737
2481.94	0.0032418
2491.58	0.00372149
2501.22	0.00387607
2510.86	0.00328701
2520.51	0.00406982
2530.15	0.0028585
2539.79	0.00429902
2549.43	0.00398185
2559.07	0.00418285
2568.72	0.00485947
2578.36	0.00383764
2588	0.00492576
2597.64	0.00422781
2607.29	0.00471987
2616.93	0.00513119
2626.57	0.00496124
2636.21	0.00531385
2645.86	0.00531027
2655.5	0.00484511
2665.14	0.00440136
2674.78	0.00471085
2684.43	0.00442174
2694.07	0.00440209
2703.71	0.00385558
2713.35	0.00433725
2722.99	0.00485219
2732.64	0.00370096
2742.28	0.00413336
2751.92	0.00476962
2761.56	0.00394728
2771.21	0.0042527
2780.85	0.00523654
2790.49	0.0042432
2800.13	0.00448448
2809.78	0.00466147
2819.42	0.00515285
2829.06	0.00548994
2838.7	0.00442596
2848.34	0.00430172
2857.99	0.00325234
2867.63	0.00401228
2877.27	0.00490046
2886.91	0.00516193
2896.56	0.00491745
2906.2	0.00399676
2915.84	0.00373412
2925.48	0.0036885
2935.13	0.00348779
2944.77	0.00564931
2954.41	0.00454825
2964.05	0.00406621
2973.7	0.00494803
2983.34	0.00583791
2992.98	0.0056522
3002.62	0.00571356
3012.26	0.00557581
3021.91	0.0042673
3031.55	0.00603605
3041.19	0.00552502
3050.83	0.00467054
3060.48	0.00524
3070.12	0.00634776
3079.76	0.00630382
3089.4	0.0071794
3099.05	0.00639319
3108.69	0.00618787
3118.33	0.00580083
3127.97	0.00577778
3137.61	0.00817641
3147.26	0.00821157
3156.9	0.00848835
3166.54	0.00716565
3176.18	0.00773584
3185.83	0.00766977
3195.47	0.00820692
3205.11	0.00842275
3214.75	0.00851943
3224.4	0.00713669
3234.04	0.00848803
3243.68	0.00727148
3253.32	0.00766987
3262.97	0.00871566
3272.61	0.00763183
3282.25	0.00901171
3291.89	0.00861582
3301.53	0.0093933
3311.18	0.00847011
3320.82	0.00798229
3330.46	0.00761872
3340.1	0.00945622
3349.75	0.0078131
3359.39	0.00979665
3369.03	0.00978508
3378.67	0.0102389
3388.32	0.0083097
3397.96	0.00937578
3407.6	0.00773083
3417.24	0.00730862
3426.89	0.00859479
3436.53	0.00885462
3446.17	0.00908615
3455.81	0.00828619
3465.45	0.00976938
3475.1	0.00901151
3484.74	0.00788164
3494.38	0.00787061
3504.02	0.0074126
3513.67	0.00679407
3523.31	0.00937356
3532.95	0.00874765
3542.59	0.00902293
3552.24	0.00673448
3561.88	0.00798344
3571.52	0.00808478
3581.16	0.00880551
3590.8	0.00843858
3600.45	0.00808599
3610.09	0.0075926
3619.73	0.00728268
3629.37	0.00681228
3639.02	0.00537172
3648.66	0.00786842
3658.3	0.00473232
3667.94	0.00420362
3677.59	0.00518517
3687.23	0.00342293
3696.87	0.00644931
3706.51	0.00360286
3716.16	0.00795956
3725.8	0.00340891
3735.44	0.00432329
3745.08	0.00266499
3754.72	0.00392077
3764.37	0.00363714
3774.01	0.00559381
3783.65	0.00322303
3793.29	0.00624004
3802.94	0.00560667
3812.58	0.00505764
3822.22	0.00703087
3831.86	0.00600416
3841.51	0.00456682
3851.15	0.00468224
3860.79	0.00557684
3870.43	0.00599168
3880.07	0.00312913
3889.72	0.00486324
3899.36	0.00220135
3909	0.00671394
3918.64	0.00470432
3928.29	0.00471882
3937.93	0.00592002
3947.57	0.00611919
3957.21	0.00818191
3966.86	0.0058528
3976.5	0.00606474
3986.14	0.00661733
3995.78	0.00796871
