Measurement: Infrared, Infrared Data Processed
Mineral: Schorl
Rruff sample: R050304
Ideal chemistry: NaFe^2+^_3_Al_6_(Si_6_O_18_)(BO_3_)_3_(OH)_3_OH
Locality: Erongo Mountains, Namibia
Source: Eugene Schlepp
Description: Black prismatic crystal associated with quartz and orthoclase
Measured chemistry: (Na_0.86_[box]_0.14_)_Σ=1_(Fe^2+^_2.68_Mg_0.22_Al_0.06_Ti_0.04_)_Σ=3_Al_6.00_(BO_3_)_3_Si_6.00_O_18_(OH)_4_
x	intensity
399.193	0.255203
408.835	0.253305
418.477	0.252829
428.12	0.234181
437.762	0.238599
447.404	0.243059
457.047	0.243051
466.689	0.254718
476.331	0.264571
485.974	0.254452
495.616	0.244309
505.258	0.228554
514.901	0.203286
524.543	0.176042
534.185	0.148756
543.828	0.14174
553.47	0.139615
563.112	0.129578
572.755	0.120097
582.397	0.107213
592.039	0.108195
601.682	0.125211
611.324	0.125598
620.966	0.0979415
630.609	0.0853335
640.251	0.0832212
649.893	0.0873464
659.536	0.0893304
669.178	0.0963334
678.82	0.091783
688.463	0.0967962
698.105	0.11923
707.747	0.120116
717.39	0.0889179
727.032	0.0663857
736.674	0.0647716
746.317	0.0782986
755.959	0.0739508
765.601	0.0756332
775.244	0.0928778
784.886	0.0698604
794.528	0.0434801
804.171	0.035564
813.813	0.0306986
823.455	0.030982
833.098	0.0337581
842.74	0.0384106
852.382	0.0429831
862.025	0.0473255
871.667	0.053651
881.309	0.0651541
890.952	0.0801904
900.594	0.0983389
910.236	0.124141
919.879	0.155014
929.521	0.19315
939.163	0.23362
948.806	0.267667
958.448	0.285743
968.09	0.288333
977.733	0.274559
987.375	0.255916
997.017	0.243258
1006.66	0.228795
1016.3	0.222414
1025.94	0.210797
1035.59	0.19601
1045.23	0.179206
1054.87	0.150119
1064.51	0.126217
1074.16	0.115938
1083.8	0.11611
1093.44	0.113375
1103.08	0.0906878
1112.72	0.065777
1122.37	0.0467439
1132.01	0.0346752
1141.65	0.0266886
1151.3	0.0228514
1160.94	0.0222562
1170.58	0.0218491
1180.22	0.022165
1189.86	0.0247791
1199.51	0.0298555
1209.15	0.0416052
1218.79	0.0622954
1228.43	0.0823468
1238.08	0.0980321
1247.72	0.115941
1257.36	0.1285
1267	0.127159
1276.64	0.119265
1286.29	0.11006
1295.93	0.105086
1305.57	0.10516
1315.21	0.106141
1324.86	0.098159
1334.5	0.0872923
1344.14	0.0736995
1353.78	0.0582712
1363.43	0.0455107
1373.07	0.0365749
1382.71	0.0285543
1392.35	0.0226755
1401.99	0.0178625
1411.64	0.0137366
1421.28	0.0103103
1430.92	0.0063344
1440.57	0.00399374
1450.21	0.00255511
1459.85	0.000875921
1469.49	0.000843872
1479.13	0.00338163
1488.78	0.0035484
1498.42	0.0034363
1508.06	0.00366923
1517.7	0.00314534
1527.35	0.00290015
1536.99	0.0029225
1546.63	0.00277311
1556.27	0.00314331
1565.91	0.00304734
1575.56	0.00344392
1585.2	0.0035784
1594.84	0.00408648
1604.48	0.00389282
1614.13	0.0043064
1623.77	0.00457399
1633.41	0.00436602
1643.05	0.00473906
1652.7	0.0059838
1662.34	0.00477034
1671.98	0.0043883
1681.62	0.00438485
1691.27	0.00388966
1700.91	0.00349495
1710.55	0.00192124
1720.19	0.00154622
1729.84	-0.000618075
1739.48	-0.00304229
1749.12	-0.00258233
1758.76	0.00257601
1768.4	0.00461278
1778.05	0.00439005
1787.69	0.00451025
1797.33	0.00467901
1806.97	0.00495466
1816.62	0.00439496
1826.26	0.00433104
1835.9	0.00422376
1845.54	0.00467436
1855.18	0.00450701
1864.83	0.00363288
1874.47	0.00454924
1884.11	0.00469274
1893.75	0.00419527
1903.4	0.0034962
1913.04	0.00237748
1922.68	0.00291895
1932.32	0.00233923
1941.97	0.00384087
1951.61	0.00100419
1961.25	0.000598454
1970.89	0.00158776
1980.54	0.00517549
1990.18	0.00485207
1999.82	0.00186908
2009.46	0.00194949
2019.11	0.00274771
2028.75	-1.741e-05
2038.39	0.00211823
2048.03	0.000410374
2057.67	0.00201164
2067.32	0.0055015
2076.96	0.00376621
2086.6	0.00427933
2096.24	0.00591811
2105.89	0.00622841
2115.53	0.00561167
2125.17	0.00293281
2134.81	0.0034189
2144.45	0.00380192
2154.1	0.00380611
2163.74	0.00560504
2173.38	0.00958103
2183.02	0.00714123
2192.67	0.00617892
2202.31	0.0101787
2211.95	0.00797851
2221.59	0.012626
2231.24	0.00719399
2240.88	0.00742153
2250.52	0.0089173
2260.16	0.0103279
2269.8	0.010501
2279.45	0.0116528
2289.09	0.0102386
2298.73	0.0109135
2308.38	0.0118126
2318.02	0.0110656
2327.66	0.0113828
2337.3	0.0113286
2346.94	0.00962462
2356.59	0.0107347
2366.23	0.00917475
2375.87	0.00884874
2385.51	0.00928565
2395.16	0.00857579
2404.8	0.00938821
2414.44	0.00844191
2424.08	0.00904887
2433.72	0.00954614
2443.37	0.00868686
2453.01	0.00773906
2462.65	0.00776151
2472.29	0.00738312
2481.94	0.00767584
2491.58	0.00823319
2501.22	0.00693048
2510.86	0.00822348
2520.51	0.00653191
2530.15	0.00649466
2539.79	0.00806583
2549.43	0.00833763
2559.07	0.00740299
2568.72	0.00769773
2578.36	0.00877565
2588	0.00846947
2597.64	0.00987101
2607.29	0.00945326
2616.93	0.00906537
2626.57	0.0086327
2636.21	0.00948231
2645.86	0.00932757
2655.5	0.00971963
2665.14	0.00888706
2674.78	0.00816497
2684.43	0.00931829
2694.07	0.00815921
2703.71	0.00938543
2713.35	0.0120689
2722.99	0.0113038
2732.64	0.0110448
2742.28	0.0103111
2751.92	0.0111083
2761.56	0.0104306
2771.21	0.0114469
2780.85	0.0129406
2790.49	0.0121252
2800.13	0.0126681
2809.78	0.0143118
2819.42	0.0130781
2829.06	0.0110907
2838.7	0.0136028
2848.34	0.0115647
2857.99	0.0151788
2867.63	0.0134203
2877.27	0.0141261
2886.91	0.0145351
2896.56	0.0152319
2906.2	0.0131287
2915.84	0.0132814
2925.48	0.0148781
2935.13	0.0178434
2944.77	0.0148122
2954.41	0.0126209
2964.05	0.0181321
2973.7	0.0157854
2983.34	0.0161991
2992.98	0.01836
3002.62	0.017216
3012.26	0.016832
3021.91	0.0184331
3031.55	0.0155249
3041.19	0.0169356
3050.83	0.0149576
3060.48	0.0167912
3070.12	0.013693
3079.76	0.0154275
3089.4	0.0194615
3099.05	0.0171719
3108.69	0.0183185
3118.33	0.0157543
3127.97	0.0192143
3137.61	0.0184515
3147.26	0.0169492
3156.9	0.016237
3166.54	0.0163137
3176.18	0.0170038
3185.83	0.0191497
3195.47	0.0174297
3205.11	0.0182669
3214.75	0.0151243
3224.4	0.0172808
3234.04	0.0168003
3243.68	0.0193885
3253.32	0.0185076
3262.97	0.0198037
3272.61	0.0169442
3282.25	0.0188818
3291.89	0.0187216
3301.53	0.0191095
3311.18	0.0200574
3320.82	0.0178083
3330.46	0.019902
3340.1	0.0176505
3349.75	0.0200048
3359.39	0.018023
3369.03	0.0183762
3378.67	0.0183611
3388.32	0.0186843
3397.96	0.020987
3407.6	0.0204388
3417.24	0.0212662
3426.89	0.0190424
3436.53	0.0224514
3446.17	0.0234987
3455.81	0.0221155
3465.45	0.0211126
3475.1	0.0253402
3484.74	0.0263066
3494.38	0.0253211
3504.02	0.0275238
3513.67	0.0311091
3523.31	0.0311622
3532.95	0.0330452
3542.59	0.0381613
3552.24	0.0438116
3561.88	0.0422014
3571.52	0.0396878
3581.16	0.0249468
3590.8	0.0165534
3600.45	0.0208357
3610.09	0.0181871
3619.73	0.0128628
3629.37	0.0144758
3639.02	0.0146709
3648.66	0.0143951
3658.3	0.0163029
3667.94	0.0181141
3677.59	0.014788
3687.23	0.0152178
3696.87	0.017004
3706.51	0.0182143
3716.16	0.0162882
3725.8	0.0200006
3735.44	0.0147806
3745.08	0.0210824
3754.72	0.0195716
3764.37	0.0171112
3774.01	0.0137499
3783.65	0.0137445
3793.29	0.0174561
3802.94	0.0134105
3812.58	0.0168428
3822.22	0.0160895
3831.86	0.0174982
3841.51	0.0186276
3851.15	0.0159915
3860.79	0.0229642
3870.43	0.0211012
3880.07	0.0144394
3889.72	0.0206164
3899.36	0.0194798
3909	0.0178776
3918.64	0.0143245
3928.29	0.0139452
3937.93	0.0187218
3947.57	0.0166657
3957.21	0.020445
3966.86	0.019478
3976.5	0.0165627
3986.14	0.0245818
3995.78	0.0180859
