Measurement: Infrared, Infrared Data Processed
Mineral: Scholzite
Rruff sample: R050238
Ideal chemistry: CaZn^2+^_2_(PO_4_)_2_2H_2_O
Locality: near Blinman, South Australia, Australia
Source: Marcus Origlieri
Description: Colorless bladed crystals
Measured chemistry: Ca_1.00_Zn_2.00_(P_1.00_O_4_)_2_Â·2H_2_O
x	intensity
399.193	0.00840986
408.835	0.0182371
418.477	0.023018
428.12	0.0177369
437.762	0.0117056
447.404	0.0109989
457.047	0.00981793
466.689	0.0114845
476.331	0.0133149
485.974	0.0153015
495.616	0.0180566
505.258	0.0219827
514.901	0.0275301
524.543	0.0347357
534.185	0.0493251
543.828	0.069901
553.47	0.0554793
563.112	0.0401851
572.755	0.0486449
582.397	0.0567437
592.039	0.0470374
601.682	0.0318483
611.324	0.0305978
620.966	0.0371685
630.609	0.0497206
640.251	0.056509
649.893	0.0504081
659.536	0.0355752
669.178	0.0252686
678.82	0.0213116
688.463	0.0210046
698.105	0.0207642
707.747	0.0195902
717.39	0.0181328
727.032	0.0173702
736.674	0.0165109
746.317	0.0159936
755.959	0.0157028
765.601	0.0153839
775.244	0.0145665
784.886	0.0140648
794.528	0.01307
804.171	0.0122424
813.813	0.0113336
823.455	0.0104941
833.098	0.00980031
842.74	0.00929202
852.382	0.00936769
862.025	0.00928084
871.667	0.0101639
881.309	0.0109538
890.952	0.0127813
900.594	0.0163242
910.236	0.0250704
919.879	0.0436304
929.521	0.0548281
939.163	0.0487706
948.806	0.0454063
958.448	0.0553703
968.09	0.0347131
977.733	0.0312999
987.375	0.0541798
997.017	0.0779703
1006.66	0.0913092
1016.3	0.0720273
1025.94	0.0638724
1035.59	0.0720578
1045.23	0.0903333
1054.87	0.0937022
1064.51	0.0826691
1074.16	0.0693107
1083.8	0.06023
1093.44	0.0644171
1103.08	0.0786835
1112.72	0.0828892
1122.37	0.0665489
1132.01	0.0483792
1141.65	0.0282765
1151.3	0.0154334
1160.94	0.00859821
1170.58	0.00600518
1180.22	0.00434001
1189.86	0.00358257
1199.51	0.00284061
1209.15	0.00256859
1218.79	0.0024268
1228.43	0.0019821
1238.08	0.00194375
1247.72	0.0020559
1257.36	0.00191475
1267	0.00183168
1276.64	0.00186695
1286.29	0.00187929
1295.93	0.00186562
1305.57	0.00181276
1315.21	0.00176925
1324.86	0.00186859
1334.5	0.00178552
1344.14	0.00164832
1353.78	0.0017669
1363.43	0.00176417
1373.07	0.00168212
1382.71	0.00183358
1392.35	0.00177879
1401.99	0.0018444
1411.64	0.00196202
1421.28	0.00200462
1430.92	0.00216126
1440.57	0.00201593
1450.21	0.00190104
1459.85	0.00193088
1469.49	0.00195934
1479.13	0.00216879
1488.78	0.00216382
1498.42	0.00213694
1508.06	0.00225948
1517.7	0.0021526
1527.35	0.00220427
1536.99	0.00217738
1546.63	0.00226397
1556.27	0.00231428
1565.91	0.00241123
1575.56	0.00244551
1585.2	0.00250264
1594.84	0.00255181
1604.48	0.00271383
1614.13	0.00291284
1623.77	0.00350634
1633.41	0.00467096
1643.05	0.00637827
1652.7	0.00743635
1662.34	0.00648372
1671.98	0.0056745
1681.62	0.00458189
1691.27	0.00365168
1700.91	0.00289577
1710.55	0.00218168
1720.19	0.00189468
1729.84	0.00142102
1739.48	0.000931756
1749.12	0.00124477
1758.76	0.00125797
1768.4	0.00140007
1778.05	0.00132151
1787.69	0.00162307
1797.33	0.00153878
1806.97	0.00128479
1816.62	0.00110681
1826.26	0.000718184
1835.9	0.000768664
1845.54	0.000949002
1855.18	0.000784065
1864.83	0.000875925
1874.47	0.000460267
1884.11	0.000527909
1893.75	0.000137627
1903.4	0.000166081
1913.04	1.02137e-05
1922.68	0.000792975
1932.32	0.000682109
1941.97	0.00134713
1951.61	0.00187559
1961.25	0.00106188
1970.89	0.000772795
1980.54	-0.000178829
1990.18	-0.000356705
1999.82	0.000442105
2009.46	-0.00114985
2019.11	-0.000284037
2028.75	0.000860827
2038.39	-0.000573457
2048.03	0.00151969
2057.67	0.000490993
2067.32	0.000777604
2076.96	0.000776994
2086.6	0.000822262
2096.24	0.00119521
2105.89	0.000762967
2115.53	0.000667296
2125.17	0.00218966
2134.81	0.000502261
2144.45	0.00248694
2154.1	0.00289999
2163.74	0.000995318
2173.38	0.0028268
2183.02	0.0019942
2192.67	0.00163174
2202.31	0.00223949
2211.95	0.00224163
2221.59	0.00170442
2231.24	0.00230501
2240.88	0.00256949
2250.52	0.00259467
2260.16	0.0016432
2269.8	0.00293468
2279.45	0.0023638
2289.09	0.00245693
2298.73	0.00247825
2308.38	0.00264651
2318.02	0.00289391
2327.66	0.00287461
2337.3	0.00322843
2346.94	0.00290948
2356.59	0.00308852
2366.23	0.00278038
2375.87	0.00317099
2385.51	0.00308648
2395.16	0.00298551
2404.8	0.00277753
2414.44	0.00295245
2424.08	0.00277164
2433.72	0.00292986
2443.37	0.00312903
2453.01	0.00268802
2462.65	0.00282582
2472.29	0.00286573
2481.94	0.00283067
2491.58	0.00273087
2501.22	0.00232863
2510.86	0.00267208
2520.51	0.00258946
2530.15	0.00278099
2539.79	0.00310897
2549.43	0.00203994
2559.07	0.002204
2568.72	0.00309226
2578.36	0.00274785
2588	0.00272688
2597.64	0.00302744
2607.29	0.00290646
2616.93	0.00279218
2626.57	0.00281674
2636.21	0.00303773
2645.86	0.00312221
2655.5	0.00324878
2665.14	0.00316978
2674.78	0.00354608
2684.43	0.00371024
2694.07	0.00316517
2703.71	0.00345676
2713.35	0.00390456
2722.99	0.00371258
2732.64	0.00372534
2742.28	0.00367923
2751.92	0.00383181
2761.56	0.00397879
2771.21	0.00355276
2780.85	0.00380539
2790.49	0.00391746
2800.13	0.00399548
2809.78	0.00429592
2819.42	0.0040915
2829.06	0.00420075
2838.7	0.00361704
2848.34	0.00247312
2857.99	0.00272877
2867.63	0.00384668
2877.27	0.00422506
2886.91	0.00394134
2896.56	0.00382301
2906.2	0.00313973
2915.84	0.00187661
2925.48	0.00109686
2935.13	0.0027962
2944.77	0.00391818
2954.41	0.00446744
2964.05	0.00449818
2973.7	0.00552035
2983.34	0.00595169
2992.98	0.00670777
3002.62	0.00628526
3012.26	0.0069289
3021.91	0.00700737
3031.55	0.00753486
3041.19	0.00797431
3050.83	0.00760306
3060.48	0.00872669
3070.12	0.00902804
3079.76	0.00949106
3089.4	0.010197
3099.05	0.0106286
3108.69	0.0112441
3118.33	0.0124197
3127.97	0.0133129
3137.61	0.0141041
3147.26	0.0145571
3156.9	0.0156416
3166.54	0.0158133
3176.18	0.0172011
3185.83	0.0178944
3195.47	0.0184708
3205.11	0.019003
3214.75	0.0187114
3224.4	0.0193902
3234.04	0.0203349
3243.68	0.0208772
3253.32	0.0218282
3262.97	0.0228362
3272.61	0.0223812
3282.25	0.0236398
3291.89	0.0236347
3301.53	0.023572
3311.18	0.0234121
3320.82	0.0235865
3330.46	0.023977
3340.1	0.0240637
3349.75	0.0226128
3359.39	0.0213112
3369.03	0.0203388
3378.67	0.0198365
3388.32	0.0196473
3397.96	0.0190031
3407.6	0.0199012
3417.24	0.0197825
3426.89	0.0198241
3436.53	0.019212
3446.17	0.0173315
3455.81	0.0160107
3465.45	0.0147843
3475.1	0.0130864
3484.74	0.0115192
3494.38	0.0112715
3504.02	0.00947027
3513.67	0.00980101
3523.31	0.00897934
3532.95	0.00773542
3542.59	0.00733138
3552.24	0.00649605
3561.88	0.00592651
3571.52	0.00529036
3581.16	0.00466539
3590.8	0.00517727
3600.45	0.00477695
3610.09	0.00419027
3619.73	0.0036308
3629.37	0.00294669
3639.02	0.00367643
3648.66	0.00473877
3658.3	0.00351301
3667.94	0.00371019
3677.59	0.00392707
3687.23	0.00438063
3696.87	0.00293698
3706.51	0.0041396
3716.16	0.00283432
3725.8	0.0035879
3735.44	0.00305679
3745.08	0.00318717
3754.72	0.00280195
3764.37	0.00461034
3774.01	0.00361028
3783.65	0.00425469
3793.29	0.00407522
3802.94	0.00457849
3812.58	0.00388589
3822.22	0.00451642
3831.86	0.00311995
3841.51	0.00355656
3851.15	0.00480531
3860.79	0.00497373
3870.43	0.00458875
3880.07	0.00425254
3889.72	0.00461216
3899.36	0.00435882
3909	0.00369217
3918.64	0.00302768
3928.29	0.00511384
3937.93	0.00357239
3947.57	0.00336966
3957.21	0.0029899
3966.86	0.00379561
3976.5	0.00460941
3986.14	0.00389207
3995.78	0.00438637
