Measurement: Infrared, Infrared Data Processed
Mineral: Schreibersite
Rruff sample: R070239
Ideal chemistry: (Fe,Ni,Cr)_3_P
Locality: Sao Juliao de Moreira meteorite, Ponte de Lima, Viana do Castelo district, Portugal
Source: Michael Scott
Description: Silvery fragments with slightly brassy luster, co-type specimen
x	intensity
374.123	0.102611
383.765	0.105269
393.407	0.105806
403.05	0.103763
412.692	0.106413
422.334	0.101262
431.976	0.103447
441.619	0.101545
451.261	0.103692
460.904	0.103623
470.546	0.103363
480.188	0.104019
489.83	0.103695
499.473	0.103054
509.115	0.102443
518.758	0.102972
528.4	0.10322
538.042	0.10312
547.684	0.104081
557.327	0.104341
566.969	0.10533
576.611	0.10522
586.254	0.105906
595.896	0.106659
605.538	0.106398
615.181	0.107028
624.823	0.10684
634.466	0.106847
644.108	0.106728
653.75	0.106977
663.393	0.107057
673.035	0.106976
682.677	0.107381
692.319	0.106644
701.962	0.106421
711.604	0.106454
721.246	0.106066
730.889	0.105925
740.531	0.106138
750.173	0.10604
759.816	0.105854
769.458	0.105694
779.101	0.106051
788.743	0.106047
798.385	0.106319
808.028	0.106239
817.67	0.106333
827.312	0.10642
836.955	0.106448
846.597	0.106343
856.239	0.106517
865.881	0.106567
875.524	0.106591
885.166	0.106757
894.808	0.106897
904.451	0.10748
914.093	0.107494
923.736	0.1075
933.378	0.10776
943.02	0.107999
952.663	0.108008
962.305	0.10794
971.947	0.108202
981.59	0.108495
991.232	0.10859
1000.87	0.108616
1010.52	0.108563
1020.16	0.108726
1029.8	0.108888
1039.44	0.108925
1049.09	0.10875
1058.73	0.108876
1068.37	0.10888
1078.01	0.108938
1087.65	0.108906
1097.3	0.108989
1106.94	0.108988
1116.58	0.108845
1126.22	0.108895
1135.87	0.108871
1145.51	0.109308
1155.15	0.109299
1164.79	0.109057
1174.44	0.108877
1184.08	0.1092
1193.72	0.109533
1203.36	0.109533
1213.01	0.109621
1222.65	0.109727
1232.29	0.109514
1241.93	0.109805
1251.58	0.109981
1261.22	0.109759
1270.86	0.109947
1280.5	0.110184
1290.14	0.110504
1299.79	0.110557
1309.43	0.110864
1319.07	0.11092
1328.71	0.111128
1338.36	0.111311
1348	0.111206
1357.64	0.111329
1367.28	0.111336
1376.92	0.11171
1386.57	0.11159
1396.21	0.111842
1405.85	0.111885
1415.49	0.112145
1425.14	0.112237
1434.78	0.112635
1444.42	0.112466
1454.06	0.112504
1463.71	0.11231
1473.35	0.112631
1482.99	0.112688
1492.63	0.112896
1502.28	0.113074
1511.92	0.113203
1521.56	0.113672
1531.2	0.113568
1540.85	0.113993
1550.49	0.113705
1560.13	0.114281
1569.77	0.114041
1579.41	0.114052
1589.06	0.114199
1598.7	0.114032
1608.34	0.114409
1617.98	0.114578
1627.63	0.114637
1637.27	0.114627
1646.91	0.114819
1656.55	0.114642
1666.19	0.114363
1675.84	0.114808
1685.48	0.114818
1695.12	0.114765
1704.77	0.114407
1714.41	0.114497
1724.05	0.114167
1733.69	0.114143
1743.33	0.113296
1752.98	0.113427
1762.62	0.113692
1772.26	0.113847
1781.9	0.114084
1791.55	0.114363
1801.19	0.114225
1810.83	0.114296
1820.47	0.1141
1830.12	0.113933
1839.76	0.114213
1849.4	0.114265
1859.04	0.113925
1868.68	0.113984
1878.33	0.11352
1887.97	0.113738
1897.61	0.113675
1907.25	0.113757
1916.9	0.114658
1926.54	0.113834
1936.18	0.114327
1945.82	0.113195
1955.46	0.112472
1965.11	0.113929
1974.75	0.115191
1984.39	0.115649
1994.04	0.115451
2003.68	0.114368
2013.32	0.114652
2022.96	0.115063
2032.6	0.116384
2042.25	0.117008
2051.89	0.116624
2061.53	0.115561
2071.17	0.116545
2080.82	0.116078
2090.46	0.115083
2100.1	0.116202
2109.74	0.116637
2119.39	0.115757
2129.03	0.115854
2138.67	0.114781
2148.31	0.114891
2157.95	0.115708
2167.6	0.118165
2177.24	0.11831
2186.88	0.117084
2196.52	0.117835
2206.17	0.119164
2215.81	0.118106
2225.45	0.118976
2235.09	0.119767
2244.74	0.119175
2254.38	0.119073
2264.02	0.119322
2273.66	0.119909
2283.3	0.120108
2292.95	0.1203
2302.59	0.119694
2312.23	0.119593
2321.87	0.120639
2331.52	0.119075
2341.16	0.11931
2350.8	0.118893
2360.44	0.119047
2370.09	0.119065
2379.73	0.119
2389.37	0.118916
2399.01	0.119285
2408.66	0.119699
2418.3	0.119687
2427.94	0.119404
2437.58	0.119664
2447.22	0.119696
2456.87	0.119581
2466.51	0.119492
2476.15	0.119691
2485.79	0.119708
2495.44	0.119597
2505.08	0.118843
2514.72	0.119332
2524.36	0.119784
2534.01	0.119558
2543.65	0.11991
2553.29	0.120282
2562.93	0.119649
2572.57	0.120157
2582.22	0.120505
2591.86	0.120768
2601.5	0.120981
2611.14	0.121149
2620.79	0.121788
2630.43	0.121498
2640.07	0.122009
2649.71	0.122171
2659.36	0.121999
2669	0.121691
2678.64	0.122243
2688.28	0.122194
2697.93	0.122172
2707.57	0.121869
2717.21	0.12211
2726.85	0.122117
2736.49	0.122002
2746.14	0.122358
2755.78	0.122488
2765.42	0.122516
2775.06	0.122581
2784.71	0.122422
2794.35	0.122662
2803.99	0.122629
2813.63	0.122749
2823.28	0.122519
2832.92	0.122857
2842.56	0.12237
2852.2	0.121692
2861.84	0.121683
2871.49	0.121553
2881.13	0.122025
2890.77	0.121439
2900.41	0.121585
2910.06	0.121774
2919.7	0.121199
2929.34	0.120223
2938.98	0.120296
2948.62	0.121026
2958.27	0.120041
2967.91	0.120483
2977.55	0.121105
2987.2	0.120931
2996.84	0.120834
3006.48	0.121436
3016.12	0.120338
3025.76	0.122392
3035.41	0.121809
3045.05	0.121991
3054.69	0.121888
3064.33	0.122404
3073.98	0.122268
3083.62	0.122328
3093.26	0.121945
3102.9	0.122535
3112.55	0.121963
3122.19	0.121937
3131.83	0.122313
3141.47	0.122347
3151.11	0.122761
3160.76	0.123182
3170.4	0.122367
3180.04	0.122657
3189.68	0.122668
3199.33	0.122999
3208.97	0.12255
3218.61	0.122904
3228.25	0.122826
3237.9	0.122491
3247.54	0.122319
3257.18	0.121523
3266.82	0.122695
3276.47	0.121893
3286.11	0.122381
3295.75	0.122182
3305.39	0.122468
3315.03	0.122009
3324.68	0.120832
3334.32	0.122931
3343.96	0.121408
3353.6	0.12259
3363.25	0.121834
3372.89	0.1214
3382.53	0.121612
3392.17	0.12227
3401.82	0.121548
3411.46	0.122068
3421.1	0.1221
3430.74	0.122754
3440.39	0.121861
3450.03	0.120296
3459.67	0.121027
3469.31	0.122651
3478.95	0.122098
3488.6	0.121338
3498.24	0.121858
3507.88	0.121318
3517.52	0.121711
3527.17	0.122194
3536.81	0.120971
3546.45	0.12166
3556.09	0.121608
3565.74	0.121927
3575.38	0.121228
3585.02	0.122
3594.66	0.122004
3604.3	0.121199
3613.95	0.121562
3623.59	0.12264
3633.23	0.121993
3642.87	0.123575
3652.52	0.122994
3662.16	0.121739
3671.8	0.124052
3681.44	0.122851
3691.09	0.124106
3700.73	0.122905
3710.37	0.123803
3720.01	0.123928
3729.66	0.123083
3739.3	0.123862
3748.94	0.125252
3758.58	0.124303
3768.22	0.12468
3777.87	0.124218
3787.51	0.124563
3797.15	0.124748
3806.79	0.125137
3816.44	0.12515
3826.08	0.123719
3835.72	0.126215
3845.36	0.123797
3855.01	0.125604
3864.65	0.124676
3874.29	0.125216
3883.93	0.12421
3893.57	0.124853
3903.22	0.124734
3912.86	0.124069
3922.5	0.125064
3932.14	0.124815
3941.79	0.123458
3951.43	0.124533
3961.07	0.12487
3970.71	0.124063
3980.36	0.124821
3990	0.124455
3999.64	0.125271
