Measurement: Infrared, Infrared Data Processed
Mineral: Schrockingerite
Rruff sample: R050565
Ideal chemistry: NaCa_3_(U^6+^O_2_)(S^6+^O_4_)(CO_3_)_3_F10H_2_O
Locality: Lost Creek, Sweetwater County, Wyoming, USA
Source: Dave Bunk Minerals
Description: Scaly aggregate of pale green micaceous crystals
Measured chemistry: Na_1.00_Ca_3.00_(U_1.00_O_2_)(S_1.00_O_4_)(CO_3_)_3_F_1.00_Â·12H_2_O ; C and H not measured but estimated by stoichiometry
x	intensity
399.193	0.0805079
408.835	0.0897055
418.477	0.111231
428.12	0.120027
437.762	0.119287
447.404	0.116016
457.047	0.114393
466.689	0.119972
476.331	0.122466
485.974	0.124423
495.616	0.129124
505.258	0.138013
514.901	0.149647
524.543	0.157658
534.185	0.166132
543.828	0.164626
553.47	0.158136
563.112	0.150625
572.755	0.145476
582.397	0.14302
592.039	0.14536
601.682	0.152621
611.324	0.154519
620.966	0.123669
630.609	0.0994879
640.251	0.0914326
649.893	0.0918697
659.536	0.0956535
669.178	0.100911
678.82	0.10278
688.463	0.0993998
698.105	0.0945057
707.747	0.101852
717.39	0.0686355
727.032	0.0715274
736.674	0.119891
746.317	0.0770267
755.959	0.0688132
765.601	0.0706361
775.244	0.0766066
784.886	0.0856796
794.528	0.0945499
804.171	0.0983644
813.813	0.105531
823.455	0.0996009
833.098	0.0896807
842.74	0.103198
852.382	0.0676462
862.025	0.0603722
871.667	0.0649666
881.309	0.0849038
890.952	0.128983
900.594	0.194832
910.236	0.10831
919.879	0.0523549
929.521	0.0333536
939.163	0.0259675
948.806	0.0250573
958.448	0.0251888
968.09	0.027029
977.733	0.0299815
987.375	0.0322067
997.017	0.035057
1006.66	0.0387799
1016.3	0.0425244
1025.94	0.0470433
1035.59	0.0534687
1045.23	0.0630188
1054.87	0.0778928
1064.51	0.110477
1074.16	0.185696
1083.8	0.269475
1093.44	0.347167
1103.08	0.278977
1112.72	0.133999
1122.37	0.0796084
1132.01	0.0687265
1141.65	0.0681609
1151.3	0.0714146
1160.94	0.0799045
1170.58	0.099808
1180.22	0.130795
1189.86	0.120091
1199.51	0.0765712
1209.15	0.0511222
1218.79	0.0388933
1228.43	0.0332004
1238.08	0.0297165
1247.72	0.0284899
1257.36	0.0283092
1267	0.0291939
1276.64	0.0313367
1286.29	0.0332632
1295.93	0.0366357
1305.57	0.0423539
1315.21	0.0529355
1324.86	0.0663321
1334.5	0.0977519
1344.14	0.139856
1353.78	0.22848
1363.43	0.412079
1373.07	0.442308
1382.71	0.311347
1392.35	0.200266
1401.99	0.139173
1411.64	0.100591
1421.28	0.072451
1430.92	0.056347
1440.57	0.048528
1450.21	0.0450837
1459.85	0.045625
1469.49	0.0488845
1479.13	0.0549549
1488.78	0.0670936
1498.42	0.0844743
1508.06	0.112432
1517.7	0.154392
1527.35	0.218354
1536.99	0.298617
1546.63	0.376621
1556.27	0.365188
1565.91	0.382204
1575.56	0.474868
1585.2	0.309401
1594.84	0.188857
1604.48	0.121745
1614.13	0.0975349
1623.77	0.0907711
1633.41	0.0965675
1643.05	0.0963465
1652.7	0.0836847
1662.34	0.0661989
1671.98	0.0553917
1681.62	0.0460417
1691.27	0.0418989
1700.91	0.0403714
1710.55	0.0401502
1720.19	0.0354347
1729.84	0.0269095
1739.48	0.0191294
1749.12	0.0133439
1758.76	0.0097422
1768.4	0.00793586
1778.05	0.00841916
1787.69	0.00764318
1797.33	0.00809564
1806.97	0.00562012
1816.62	0.006428
1826.26	0.0087884
1835.9	0.00651525
1845.54	0.00613151
1855.18	0.00558584
1864.83	0.00597837
1874.47	0.00618531
1884.11	0.00515674
1893.75	0.00537947
1903.4	0.0049104
1913.04	0.00535215
1922.68	0.0038778
1932.32	0.00552848
1941.97	0.0043357
1951.61	0.0045384
1961.25	0.00314773
1970.89	-9.82763e-05
1980.54	0.00610025
1990.18	0.00596938
1999.82	0.00526748
2009.46	0.00413029
2019.11	0.00186558
2028.75	0.00102167
2038.39	0.00378648
2048.03	0.00736111
2057.67	0.00769479
2067.32	0.00808778
2076.96	0.0106069
2086.6	0.0109794
2096.24	0.00955965
2105.89	0.00952162
2115.53	0.00749748
2125.17	0.00717989
2134.81	0.00400559
2144.45	0.00312025
2154.1	0.000297463
2163.74	0.00178205
2173.38	0.000857703
2183.02	-0.000510602
2192.67	0.00117092
2202.31	0.00117103
2211.95	0.000773383
2221.59	0.00669381
2231.24	0.00564112
2240.88	0.00605677
2250.52	0.00737743
2260.16	0.0081558
2269.8	0.0086593
2279.45	0.00898177
2289.09	0.00897423
2298.73	0.0102857
2308.38	0.0103197
2318.02	0.00942211
2327.66	0.0111109
2337.3	0.00914566
2346.94	0.00857286
2356.59	0.00787698
2366.23	0.00806162
2375.87	0.00706735
2385.51	0.0068912
2395.16	0.00785051
2404.8	0.00836056
2414.44	0.00923513
2424.08	0.0085174
2433.72	0.0104501
2443.37	0.0113161
2453.01	0.0102078
2462.65	0.00948375
2472.29	0.00926685
2481.94	0.0103899
2491.58	0.00867442
2501.22	0.0093385
2510.86	0.00882232
2520.51	0.00854254
2530.15	0.0106362
2539.79	0.00920218
2549.43	0.00990982
2559.07	0.0103865
2568.72	0.010199
2578.36	0.00896363
2588	0.012272
2597.64	0.010916
2607.29	0.0118913
2616.93	0.0116717
2626.57	0.0128397
2636.21	0.0135227
2645.86	0.0140475
2655.5	0.0165748
2665.14	0.0135908
2674.78	0.0127481
2684.43	0.0112641
2694.07	0.0108009
2703.71	0.009886
2713.35	0.00904281
2722.99	0.00964648
2732.64	0.00777106
2742.28	0.00824212
2751.92	0.0092642
2761.56	0.0103653
2771.21	0.0119053
2780.85	0.0111394
2790.49	0.0121206
2800.13	0.0129715
2809.78	0.0135788
2819.42	0.0153722
2829.06	0.0169171
2838.7	0.0172
2848.34	0.0195627
2857.99	0.0185371
2867.63	0.0198687
2877.27	0.022394
2886.91	0.0225496
2896.56	0.0247009
2906.2	0.0261745
2915.84	0.0292953
2925.48	0.0258367
2935.13	0.0254916
2944.77	0.0277583
2954.41	0.0282753
2964.05	0.0298262
2973.7	0.0319387
2983.34	0.0292744
2992.98	0.0318945
3002.62	0.0324253
3012.26	0.0337087
3021.91	0.0343215
3031.55	0.0353031
3041.19	0.0353079
3050.83	0.0405887
3060.48	0.0416231
3070.12	0.0446191
3079.76	0.0457529
3089.4	0.0480926
3099.05	0.0510698
3108.69	0.0573334
3118.33	0.0618364
3127.97	0.0676472
3137.61	0.0726802
3147.26	0.0777401
3156.9	0.0860301
3166.54	0.0989993
3176.18	0.105077
3185.83	0.117321
3195.47	0.129051
3205.11	0.143221
3214.75	0.154282
3224.4	0.165773
3234.04	0.174269
3243.68	0.182217
3253.32	0.181094
3262.97	0.181094
3272.61	0.179454
3282.25	0.1743
3291.89	0.171025
3301.53	0.16744
3311.18	0.166707
3320.82	0.170036
3330.46	0.171102
3340.1	0.175806
3349.75	0.17934
3359.39	0.188392
3369.03	0.194632
3378.67	0.207627
3388.32	0.222626
3397.96	0.232499
3407.6	0.243621
3417.24	0.246975
3426.89	0.254476
3436.53	0.257297
3446.17	0.259439
3455.81	0.253267
3465.45	0.244508
3475.1	0.225559
3484.74	0.210114
3494.38	0.193832
3504.02	0.180045
3513.67	0.164419
3523.31	0.13752
3532.95	0.116749
3542.59	0.0949248
3552.24	0.0824663
3561.88	0.0742853
3571.52	0.0673873
3581.16	0.0640274
3590.8	0.06349
3600.45	0.0611904
3610.09	0.0540654
3619.73	0.0422674
3629.37	0.0374527
3639.02	0.0304456
3648.66	0.0258736
3658.3	0.0218783
3667.94	0.0126005
3677.59	0.0165546
3687.23	0.0128559
3696.87	0.0110669
3706.51	0.00965488
3716.16	0.0146447
3725.8	0.0124016
3735.44	0.0103522
3745.08	0.00852031
3754.72	0.00946335
3764.37	0.0146307
3774.01	0.00997538
3783.65	0.0110858
3793.29	0.00905686
3802.94	0.0146108
3812.58	0.00802394
3822.22	0.00874228
3831.86	0.00928338
3841.51	0.0101141
3851.15	0.0123596
3860.79	0.0126747
3870.43	0.0140848
3880.07	0.0114565
3889.72	0.0135957
3899.36	0.013948
3909	0.0129023
3918.64	0.0149613
3928.29	0.00950324
3937.93	0.0140607
3947.57	0.0141976
3957.21	0.0140416
3966.86	0.016389
3976.5	0.0156925
3986.14	0.0130457
3995.78	0.0152263
