Measurement: Infrared, Infrared Data Processed
Mineral: Scorodite
Rruff sample: R050465
Ideal chemistry: Fe^3+^As^5+^O_4_2H_2_O
Locality: Minas Gerais, Brazil
Source: University of Arizona Mineral Museum
Description: Group of blue prismatic to tabular crystals displaying many modifying forms
Measured chemistry: Fe^3+^_1.00_As_1.00_O_4_Â·2H_2_O
x	intensity
374.123	0.410376
383.765	0.370123
393.407	0.358057
403.05	0.323192
412.692	0.361012
422.334	0.311573
431.976	0.285645
441.619	0.25644
451.261	0.241017
460.904	0.246774
470.546	0.228986
480.188	0.201871
489.83	0.199887
499.473	0.183501
509.115	0.160262
518.758	0.141737
528.4	0.128733
538.042	0.12521
547.684	0.128954
557.327	0.135385
566.969	0.140651
576.611	0.141842
586.254	0.137139
595.896	0.127583
605.538	0.117543
615.181	0.111161
624.823	0.110014
634.466	0.107186
644.108	0.105112
653.75	0.107511
663.393	0.115769
673.035	0.130749
682.677	0.153069
692.319	0.182756
701.962	0.214791
711.604	0.246216
721.246	0.266843
730.889	0.275066
740.531	0.286005
750.173	0.315755
759.816	0.374918
769.458	0.459141
779.101	0.546964
788.743	0.61959
798.385	0.602075
808.028	0.490547
817.67	0.418008
827.312	0.330699
836.955	0.245184
846.597	0.194918
856.239	0.158912
865.881	0.128481
875.524	0.111345
885.166	0.106338
894.808	0.103498
904.451	0.0956427
914.093	0.0789568
923.736	0.0545425
933.378	0.0422122
943.02	0.0347722
952.663	0.0297695
962.305	0.0274059
971.947	0.0258615
981.59	0.0251186
991.232	0.0253805
1000.87	0.0265529
1010.52	0.029949
1020.16	0.0340281
1029.8	0.030856
1039.44	0.0285205
1049.09	0.0321941
1058.73	0.0281002
1068.37	0.025774
1078.01	0.0266093
1087.65	0.027408
1097.3	0.0276473
1106.94	0.0272147
1116.58	0.0263832
1126.22	0.0251433
1135.87	0.0237056
1145.51	0.0221891
1155.15	0.0211492
1164.79	0.0213416
1174.44	0.0204772
1184.08	0.0203597
1193.72	0.0206464
1203.36	0.0204336
1213.01	0.0199992
1222.65	0.0195638
1232.29	0.019429
1241.93	0.0194766
1251.58	0.0194626
1261.22	0.0193559
1270.86	0.0198324
1280.5	0.0205392
1290.14	0.0207382
1299.79	0.0204403
1309.43	0.02087
1319.07	0.0210069
1328.71	0.0212648
1338.36	0.0216038
1348	0.0219039
1357.64	0.0222332
1367.28	0.023051
1376.92	0.0237552
1386.57	0.0246376
1396.21	0.0262194
1405.85	0.0274882
1415.49	0.0287918
1425.14	0.0300888
1434.78	0.0311473
1444.42	0.0315761
1454.06	0.0324239
1463.71	0.0328309
1473.35	0.034231
1482.99	0.0345572
1492.63	0.035473
1502.28	0.0366423
1511.92	0.0374536
1521.56	0.0395136
1531.2	0.0402768
1540.85	0.0432827
1550.49	0.0441459
1560.13	0.0476613
1569.77	0.0482397
1579.41	0.0490544
1589.06	0.0488648
1598.7	0.0467259
1608.34	0.0424166
1617.98	0.0385993
1627.63	0.0348393
1637.27	0.0329688
1646.91	0.0317122
1656.55	0.0300265
1666.19	0.0290284
1675.84	0.0288512
1685.48	0.0292068
1695.12	0.029375
1704.77	0.0287739
1714.41	0.0278982
1724.05	0.0265666
1733.69	0.0270992
1743.33	0.0249482
1752.98	0.0247477
1762.62	0.0245408
1772.26	0.0244136
1781.9	0.0236294
1791.55	0.0239554
1801.19	0.0233752
1810.83	0.0230479
1820.47	0.0226589
1830.12	0.0228173
1839.76	0.0228683
1849.4	0.0230919
1859.04	0.023336
1868.68	0.0240513
1878.33	0.0233527
1887.97	0.0238207
1897.61	0.0237071
1907.25	0.0241722
1916.9	0.0243365
1926.54	0.0248479
1936.18	0.024993
1945.82	0.0244392
1955.46	0.0238845
1965.11	0.0250945
1974.75	0.0244584
1984.39	0.0268674
1994.04	0.0275987
2003.68	0.0266466
2013.32	0.0260281
2022.96	0.0266581
2032.6	0.0266225
2042.25	0.0286673
2051.89	0.030595
2061.53	0.0307386
2071.17	0.0315457
2080.82	0.0328196
2090.46	0.0330356
2100.1	0.033396
2109.74	0.0345454
2119.39	0.034841
2129.03	0.0333651
2138.67	0.0343954
2148.31	0.0351719
2157.95	0.0333678
2167.6	0.0398477
2177.24	0.0380712
2186.88	0.0391628
2196.52	0.0409627
2206.17	0.0409017
2215.81	0.041717
2225.45	0.0428196
2235.09	0.0434534
2244.74	0.0425373
2254.38	0.0447232
2264.02	0.0434536
2273.66	0.0444254
2283.3	0.0452439
2292.95	0.0451519
2302.59	0.0458639
2312.23	0.046366
2321.87	0.0485402
2331.52	0.0483223
2341.16	0.0483304
2350.8	0.0479813
2360.44	0.0496123
2370.09	0.0489839
2379.73	0.0485386
2389.37	0.0484772
2399.01	0.0490794
2408.66	0.0499527
2418.3	0.0506133
2427.94	0.0513382
2437.58	0.0524704
2447.22	0.0530216
2456.87	0.0542491
2466.51	0.054669
2476.15	0.0556628
2485.79	0.0562721
2495.44	0.0570582
2505.08	0.0583766
2514.72	0.0594476
2524.36	0.0602547
2534.01	0.0621562
2543.65	0.0626571
2553.29	0.0647595
2562.93	0.0657549
2572.57	0.0675815
2582.22	0.0687578
2591.86	0.0700393
2601.5	0.071606
2611.14	0.0737253
2620.79	0.0754245
2630.43	0.0774677
2640.07	0.079095
2649.71	0.0811861
2659.36	0.0835611
2669	0.0855969
2678.64	0.0879421
2688.28	0.0904939
2697.93	0.0932969
2707.57	0.0957255
2717.21	0.0986041
2726.85	0.101051
2736.49	0.103763
2746.14	0.106671
2755.78	0.10973
2765.42	0.112834
2775.06	0.116073
2784.71	0.119094
2794.35	0.122651
2803.99	0.126517
2813.63	0.130591
2823.28	0.134113
2832.92	0.138983
2842.56	0.143431
2852.2	0.1475
2861.84	0.153486
2871.49	0.160992
2881.13	0.168354
2890.77	0.176627
2900.41	0.185108
2910.06	0.194462
2919.7	0.202227
2929.34	0.21385
2938.98	0.22325
2948.62	0.230744
2958.27	0.235006
2967.91	0.236992
2977.55	0.236836
2987.2	0.234344
2996.84	0.231296
3006.48	0.227577
3016.12	0.22152
3025.76	0.221064
3035.41	0.218047
3045.05	0.213729
3054.69	0.209296
3064.33	0.204591
3073.98	0.199724
3083.62	0.195264
3093.26	0.190681
3102.9	0.186404
3112.55	0.182294
3122.19	0.178969
3131.83	0.174181
3141.47	0.16969
3151.11	0.16512
3160.76	0.160853
3170.4	0.155923
3180.04	0.151887
3189.68	0.147118
3199.33	0.142277
3208.97	0.137303
3218.61	0.132636
3228.25	0.127859
3237.9	0.122614
3247.54	0.117539
3257.18	0.112094
3266.82	0.108094
3276.47	0.102555
3286.11	0.0984187
3295.75	0.0937867
3305.39	0.0903958
3315.03	0.0866946
3324.68	0.0831827
3334.32	0.0806857
3343.96	0.0778555
3353.6	0.0749582
3363.25	0.0722029
3372.89	0.0712256
3382.53	0.0691487
3392.17	0.0684031
3401.82	0.0664251
3411.46	0.0662247
3421.1	0.0670456
3430.74	0.0677219
3440.39	0.0687545
3450.03	0.0715018
3459.67	0.0721002
3469.31	0.074605
3478.95	0.0826246
3488.6	0.0969104
3498.24	0.122527
3507.88	0.167113
3517.52	0.182237
3527.17	0.128245
3536.81	0.0885238
3546.45	0.0634762
3556.09	0.0500912
3565.74	0.0413997
3575.38	0.0351562
3585.02	0.0312753
3594.66	0.0290902
3604.3	0.0267909
3613.95	0.0251564
3623.59	0.0247692
3633.23	0.023245
3642.87	0.0243932
3652.52	0.0246381
3662.16	0.0231882
3671.8	0.0250647
3681.44	0.0227346
3691.09	0.0246067
3700.73	0.0247706
3710.37	0.0247536
3720.01	0.0240384
3729.66	0.0253153
3739.3	0.0252063
3748.94	0.0278309
3758.58	0.0259231
3768.22	0.0273934
3777.87	0.0261536
3787.51	0.0260562
3797.15	0.0277961
3806.79	0.0280271
3816.44	0.0283899
3826.08	0.0276675
3835.72	0.0284396
3845.36	0.0278958
3855.01	0.0301506
3864.65	0.0298872
3874.29	0.0288664
3883.93	0.0292473
3893.57	0.0297256
3903.22	0.0306467
3912.86	0.0287535
3922.5	0.0293357
3932.14	0.0309283
3941.79	0.0298604
3951.43	0.0288393
3961.07	0.0294629
3970.71	0.0303092
3980.36	0.0296959
3990	0.0307637
3999.64	0.0297184
