Measurement: Infrared, Infrared Data Processed
Mineral: Senarmontite
Rruff sample: R060075
Ideal chemistry: Sb^3+^_2_O_3_
Locality: Djebel Haminate mine, Constantine, Algeria
Source: University of Arizona Mineral Museum
Description: Brown octahedra
Measured chemistry: Sb_2.00_O_3_
x	intensity
374.123	0.544048
383.765	0.344853
393.407	0.170815
403.05	0.170423
412.692	0.0662666
422.334	0.0482218
431.976	0.0397765
441.619	0.0411513
451.261	0.0530261
460.904	0.0633611
470.546	0.0711898
480.188	0.100171
489.83	0.09223
499.473	0.115624
509.115	0.141624
518.758	0.166201
528.4	0.198288
538.042	0.230865
547.684	0.265868
557.327	0.303377
566.969	0.333863
576.611	0.371611
586.254	0.412618
595.896	0.453012
605.538	0.495441
615.181	0.529188
624.823	0.557846
634.466	0.61516
644.108	0.665522
653.75	0.717031
663.393	0.771554
673.035	0.811581
682.677	0.845345
692.319	0.863211
701.962	0.844161
711.604	0.738151
721.246	0.566623
730.889	0.432508
740.531	0.335584
750.173	0.262539
759.816	0.21531
769.458	0.167144
779.101	0.132708
788.743	0.0914201
798.385	0.0580485
808.028	0.028948
817.67	0.0158203
827.312	0.0137956
836.955	0.010578
846.597	0.00844551
856.239	0.00529097
865.881	0.00186467
875.524	1.79466e-05
885.166	-0.000485407
894.808	-0.000463907
904.451	0.001758
914.093	0.00601942
923.736	0.0150149
933.378	0.0306989
943.02	0.0557633
952.663	0.0718034
962.305	0.0734724
971.947	0.072138
981.59	0.0589322
991.232	0.0446146
1000.87	0.0265047
1010.52	0.0150052
1020.16	0.00971292
1029.8	0.00765222
1039.44	0.00785366
1049.09	0.00858894
1058.73	0.0108709
1068.37	0.014382
1078.01	0.0184241
1087.65	0.0208115
1097.3	0.0223731
1106.94	0.0193376
1116.58	0.0152232
1126.22	0.0109936
1135.87	0.00782249
1145.51	0.00607613
1155.15	0.00656933
1164.79	0.00942845
1174.44	0.00957388
1184.08	0.00750547
1193.72	0.00540625
1203.36	0.00260227
1213.01	-5.84386e-05
1222.65	-0.00147535
1232.29	-0.00146627
1241.93	-0.00159422
1251.58	-0.00183356
1261.22	-0.00163943
1270.86	0.000364371
1280.5	3.23802e-05
1290.14	-0.00158303
1299.79	-0.00176911
1309.43	-0.00127355
1319.07	-0.000921063
1328.71	-0.00075718
1338.36	-0.000511095
1348	-0.000511125
1357.64	-0.000511557
1367.28	-0.00023941
1376.92	0.00100112
1386.57	-0.000943169
1396.21	-0.000866435
1405.85	-0.000185184
1415.49	-0.000342108
1425.14	0.000446953
1434.78	0.00190942
1444.42	0.00285821
1454.06	0.00404769
1463.71	0.00447807
1473.35	0.000606202
1482.99	-0.000510454
1492.63	-0.00060755
1502.28	-0.000506096
1511.92	-0.000663727
1521.56	-0.000981599
1531.2	-0.00082431
1540.85	-0.000982128
1550.49	-0.000822097
1560.13	-0.000914209
1569.77	-0.00033813
1579.41	-0.000144958
1589.06	7.87079e-05
1598.7	0.000555739
1608.34	0.00117497
1617.98	0.00165118
1627.63	0.00179943
1637.27	0.00164667
1646.91	0.00159784
1656.55	0.00117089
1666.19	0.00107922
1675.84	0.00129949
1685.48	0.00162816
1695.12	0.00278459
1704.77	0.00525321
1714.41	0.00639892
1724.05	0.00583631
1733.69	0.00251764
1743.33	-0.000324324
1752.98	-0.00126116
1762.62	-0.000654936
1772.26	-0.0007139
1781.9	-0.000512987
1791.55	-0.000530332
1801.19	-0.000761136
1810.83	-0.000677735
1820.47	-0.000423819
1830.12	-0.000156358
1839.76	-0.000507474
1849.4	-3.71188e-05
1859.04	-0.000518963
1868.68	-0.00018245
1878.33	-0.00027588
1887.97	-0.000417605
1897.61	-0.00103119
1907.25	-0.000363737
1916.9	-0.000483915
1926.54	-0.000150025
1936.18	-0.000534311
1945.82	-8.75741e-05
1955.46	-0.00050287
1965.11	0.00118674
1974.75	0.00014998
1984.39	0.00318678
1994.04	0.00184284
2003.68	0.00107145
2013.32	0.00341697
2022.96	0.00172058
2032.6	0.00329588
2042.25	0.00408042
2051.89	0.00447996
2061.53	0.00390622
2071.17	0.00378805
2080.82	0.00460245
2090.46	0.0025745
2100.1	0.00336601
2109.74	0.00379755
2119.39	0.00291869
2129.03	0.00208554
2138.67	0.00264637
2148.31	0.00317247
2157.95	0.00331734
2167.6	0.00674178
2177.24	0.00480352
2186.88	0.00593002
2196.52	0.00566557
2206.17	0.00542243
2215.81	0.00585012
2225.45	0.00548938
2235.09	0.00558333
2244.74	0.00449285
2254.38	0.00487503
2264.02	0.00450185
2273.66	0.0045332
2283.3	0.00460888
2292.95	0.00341462
2302.59	0.00281714
2312.23	0.00194973
2321.87	0.00259219
2331.52	2.23219e-05
2341.16	8.86917e-05
2350.8	-0.000518531
2360.44	-0.000420749
2370.09	-0.00110796
2379.73	-0.000248283
2389.37	-0.000360966
2399.01	-0.000381619
2408.66	0.000510991
2418.3	0.00100231
2427.94	0.000624418
2437.58	0.000590891
2447.22	0.00109196
2456.87	0.000976801
2466.51	0.000547498
2476.15	0.000971407
2485.79	0.000169903
2495.44	0.00101873
2505.08	0.000333995
2514.72	0.000829756
2524.36	0.000635743
2534.01	0.000375897
2543.65	0.000582457
2553.29	0.000251502
2562.93	0.000729978
2572.57	0.000373125
2582.22	0.000698924
2591.86	0.00021702
2601.5	0.000235826
2611.14	-0.000190169
2620.79	5.52237e-05
2630.43	-0.000291675
2640.07	-0.000589252
2649.71	-0.00129637
2659.36	-0.00126082
2669	-0.00188529
2678.64	-0.00207993
2688.28	-0.00175014
2697.93	-0.00176153
2707.57	-0.00106207
2717.21	-0.00106397
2726.85	-0.000435322
2736.49	-0.000168443
2746.14	-0.000174016
2755.78	0.000511199
2765.42	0.00114155
2775.06	0.00129241
2784.71	0.00212187
2794.35	0.00256282
2803.99	0.00346008
2813.63	0.00477916
2823.28	0.00659952
2832.92	0.01199
2842.56	0.0189917
2852.2	0.0184971
2861.84	0.0139659
2871.49	0.0137688
2881.13	0.0136891
2890.77	0.0176688
2900.41	0.0226089
2910.06	0.0296824
2919.7	0.0337135
2929.34	0.0219
2938.98	0.0119914
2948.62	0.0129603
2958.27	0.0117111
2967.91	0.00398082
2977.55	-0.00153518
2987.2	-0.00216377
2996.84	-0.00243765
3006.48	-0.0024251
3016.12	-0.00217137
3025.76	-0.00197878
3035.41	-0.00144792
3045.05	-0.00186935
3054.69	-0.00198352
3064.33	-0.0017454
3073.98	-0.00139895
3083.62	-0.00188994
3093.26	-0.00171363
3102.9	-0.00141406
3112.55	-0.00187337
3122.19	-0.00154448
3131.83	-0.00151205
3141.47	-0.00135234
3151.11	-0.00152084
3160.76	-0.00144288
3170.4	-0.00208148
3180.04	-0.00179178
3189.68	-0.00205827
3199.33	-0.00117734
3208.97	-0.00244641
3218.61	-0.00177941
3228.25	-0.00115138
3237.9	-0.001077
3247.54	-0.00158858
3257.18	-0.00122732
3266.82	-0.00214791
3276.47	-0.00170287
3286.11	-0.00207952
3295.75	-0.00130451
3305.39	-0.000997663
3315.03	-0.00122219
3324.68	-0.000967771
3334.32	-0.00167283
3343.96	-0.00108773
3353.6	-0.0011664
3363.25	-0.0016146
3372.89	-0.00203311
3382.53	-0.00166461
3392.17	-0.00155449
3401.82	-0.00116748
3411.46	-0.00147203
3421.1	-0.00140086
3430.74	-0.00201613
3440.39	-0.00242901
3450.03	-0.00169215
3459.67	-0.00240576
3469.31	-0.00212207
3478.95	-0.00224993
3488.6	-0.00190112
3498.24	-0.000837445
3507.88	-0.00218716
3517.52	-0.00143215
3527.17	-0.00145224
3536.81	-0.00167206
3546.45	-0.00217256
3556.09	-0.00178122
3565.74	-0.0024986
3575.38	-0.00176334
3585.02	-0.00125438
3594.66	-0.00126439
3604.3	-0.000253886
3613.95	-0.000671238
3623.59	0.000506163
3633.23	-0.000608146
3642.87	-0.000397921
3652.52	-0.000177771
3662.16	-0.00168467
3671.8	-0.000151873
3681.44	-0.000460535
3691.09	0.000829011
3700.73	0.000845194
3710.37	0.000193626
3720.01	0.000244975
3729.66	0.0011771
3739.3	-0.000333965
3748.94	0.000508159
3758.58	0.00112265
3768.22	3.49581e-05
3777.87	0.000871837
3787.51	-0.00019291
3797.15	0.00134635
3806.79	0.000537217
3816.44	0.000319183
3826.08	0.00196451
3835.72	0.000726521
3845.36	0.000371695
3855.01	0.000823498
3864.65	0.000371128
3874.29	0.000429928
3883.93	0.000621706
3893.57	0.000690013
3903.22	0.000765055
3912.86	0.00150091
3922.5	-0.000348866
3932.14	0.000430942
3941.79	-9.42945e-05
3951.43	-0.000488162
3961.07	-0.000818372
3970.71	-0.000360995
3980.36	-1.37389e-05
3990	-0.000565171
3999.64	-2.28882e-05
