Measurement: Infrared, Infrared Data Processed
Mineral: Senegalite
Rruff sample: R050239
Ideal chemistry: Al_2_PO_4_(OH)_3_H_2_O
Locality: Kourondicko iron ore (magnetite) deposit, Faleme River Basin, Senegal
Source: Marcus Origlieri
Description: Colorless prismatic crystals
Measured chemistry: Al_2.00_P_1.00_O_4_(OH)_3_Â·H_2_O
x	intensity
50.1401	0.0200762
52.0686	0.0101113
53.9971	0.012163
55.9255	0.0153066
57.854	0.0133254
59.7825	0.0120972
61.7109	0.0128667
63.6394	0.0195595
65.5679	0.0225507
67.4963	0.0179219
69.4248	0.0182086
71.3533	0.0208283
73.2817	0.0207439
75.2102	0.0197662
77.1387	0.0207303
79.0671	0.0222823
80.9956	0.0248332
82.9241	0.0251417
84.8525	0.0220481
86.781	0.0214364
88.7095	0.0232798
90.6379	0.0243472
92.5664	0.0253621
94.4948	0.0270838
96.4233	0.0295439
98.3518	0.0358147
100.28	0.0408695
102.209	0.0345753
104.137	0.0239299
106.066	0.0194015
107.994	0.0198701
109.923	0.020116
111.851	0.0212862
113.779	0.022614
115.708	0.0232826
117.636	0.0238628
119.565	0.0245581
121.493	0.0247865
123.422	0.0255914
125.35	0.0268905
127.279	0.0270723
129.207	0.0280694
131.136	0.0301801
133.064	0.0311291
134.993	0.0317045
136.921	0.0334343
138.85	0.0358607
140.778	0.0380265
142.707	0.0389974
144.635	0.0377271
146.563	0.0358881
148.492	0.0352156
150.42	0.0351759
152.349	0.0353678
154.277	0.0357541
156.206	0.0370893
158.134	0.0383466
160.063	0.0391934
161.991	0.0403112
163.92	0.0419615
165.848	0.0437155
167.777	0.0456901
169.705	0.0488333
171.633	0.0521183
173.562	0.0544224
175.49	0.0534796
177.419	0.0506932
179.347	0.0492993
181.276	0.0495989
183.204	0.0505437
185.133	0.0529631
187.061	0.0562718
188.99	0.0602619
190.918	0.0649528
192.847	0.0667048
194.775	0.0628495
196.704	0.0596215
198.632	0.0597537
200.56	0.0608377
202.489	0.0624752
204.417	0.0611177
206.346	0.0575842
208.274	0.0564202
210.203	0.0586853
212.131	0.0617689
214.06	0.0657172
215.988	0.0701817
217.917	0.0747943
219.845	0.077574
221.774	0.0769005
223.702	0.07121
225.631	0.0635801
227.559	0.0608612
229.488	0.0621202
231.416	0.0636769
233.344	0.0653889
235.273	0.0652672
237.201	0.0634644
239.13	0.0613161
241.058	0.0583298
242.987	0.0561917
244.915	0.0565745
246.844	0.0589523
248.772	0.0611092
250.701	0.0632497
252.629	0.0655193
254.558	0.0680702
256.486	0.0707194
258.414	0.073381
260.343	0.0763643
262.271	0.0795468
264.2	0.0827292
266.128	0.0854401
268.057	0.0880921
269.985	0.0920299
271.914	0.0960714
273.842	0.095412
275.771	0.0863779
277.699	0.0733817
279.628	0.0651742
281.556	0.0645653
283.485	0.0675172
285.413	0.0709339
287.341	0.0743983
289.27	0.0774669
291.198	0.0800122
293.127	0.0819224
295.055	0.0839296
296.984	0.0861691
298.912	0.0883507
300.841	0.0908498
302.769	0.0938294
304.698	0.0969452
306.626	0.0991761
308.555	0.0999205
310.483	0.0980356
312.411	0.0960925
314.34	0.0957741
316.269	0.097338
318.197	0.0993836
320.125	0.0997361
322.054	0.0997866
323.982	0.101316
325.911	0.10365
327.839	0.10423
329.768	0.1017
331.696	0.100102
333.625	0.102044
335.553	0.105598
337.482	0.108875
339.41	0.111881
341.339	0.114368
343.267	0.116197
345.195	0.118759
347.124	0.121669
349.052	0.123878
350.981	0.125233
352.909	0.124684
354.838	0.122562
356.766	0.119282
358.695	0.115918
360.623	0.114069
362.552	0.11467
364.48	0.116033
366.409	0.116008
368.337	0.114648
370.265	0.112873
372.194	0.11271
374.122	0.114343
376.051	0.116603
377.979	0.117209
379.908	0.11571
381.836	0.111899
383.765	0.106931
385.693	0.101866
387.622	0.0974359
389.55	0.0945574
391.479	0.0937943
393.407	0.0951464
395.336	0.0980366
397.264	0.102316
399.192	0.107412
401.121	0.111598
403.049	0.115204
404.978	0.118095
406.906	0.121094
408.835	0.125455
410.763	0.130266
412.692	0.133838
414.62	0.135302
416.549	0.133104
418.477	0.126673
420.406	0.118764
422.334	0.113092
424.262	0.111088
426.191	0.111616
428.12	0.113116
430.048	0.115579
431.976	0.118794
433.905	0.122561
435.833	0.126169
437.762	0.128734
439.69	0.130722
441.619	0.132124
443.547	0.132707
445.476	0.133645
447.404	0.135073
449.333	0.137375
451.261	0.139998
453.19	0.142857
455.118	0.144966
457.046	0.146507
458.975	0.146262
460.903	0.145793
462.832	0.147449
464.76	0.149856
466.689	0.150873
468.617	0.150505
470.546	0.149023
472.474	0.148141
474.403	0.148879
476.331	0.149789
478.26	0.150027
480.188	0.148757
482.116	0.145816
484.045	0.142918
485.974	0.141031
487.902	0.139978
489.83	0.139807
491.759	0.140301
493.687	0.140478
495.616	0.139436
497.544	0.138244
499.473	0.137537
501.401	0.136547
503.33	0.135178
505.258	0.133541
507.187	0.131447
509.115	0.128557
511.043	0.125197
512.972	0.121038
514.9	0.116613
516.829	0.11315
518.757	0.11014
520.686	0.107715
522.614	0.106143
524.543	0.105812
526.471	0.107061
528.4	0.109091
530.328	0.111188
532.257	0.113555
534.185	0.115483
536.114	0.117732
538.042	0.120228
539.971	0.123564
541.899	0.128438
543.827	0.13413
545.756	0.139418
547.684	0.143852
549.613	0.14712
551.541	0.149083
553.47	0.149158
555.398	0.147068
557.327	0.143852
559.255	0.139767
561.184	0.135898
563.112	0.132165
565.041	0.128606
566.969	0.125341
568.898	0.122666
570.826	0.119741
572.755	0.116841
574.683	0.114369
576.611	0.111977
578.54	0.109383
580.468	0.107291
582.397	0.105323
584.325	0.102952
586.254	0.101154
588.182	0.0998074
590.111	0.0979237
592.039	0.0960672
593.968	0.09501
595.896	0.09405
597.824	0.0933859
599.753	0.0935083
601.682	0.093592
603.61	0.0948757
605.538	0.0982176
607.467	0.102095
609.395	0.105164
611.324	0.107938
613.252	0.109174
615.181	0.108661
617.109	0.107865
619.038	0.108473
620.966	0.11113
622.894	0.11474
624.823	0.117771
626.751	0.120135
628.68	0.121268
630.608	0.121383
632.537	0.119814
634.465	0.116658
636.394	0.112828
638.322	0.108993
640.251	0.105662
642.179	0.102368
644.108	0.0987596
646.036	0.0955436
647.965	0.0926202
649.893	0.089633
651.822	0.0866097
653.75	0.0842704
655.678	0.0823487
657.607	0.0804865
659.535	0.0790661
661.464	0.0786122
663.392	0.0784002
665.321	0.0785709
667.249	0.0802006
669.178	0.0826176
671.106	0.0852179
673.035	0.0876986
674.963	0.0890198
676.892	0.088725
678.82	0.0873277
680.749	0.086199
682.677	0.0865336
684.606	0.0874292
686.534	0.0887204
688.462	0.0904323
690.391	0.0929388
692.319	0.0967495
694.248	0.100976
696.176	0.105289
698.105	0.109129
700.033	0.113056
