Measurement: Infrared, Infrared Data Processed
Mineral: Senegalite
Rruff sample: R050239
Ideal chemistry: Al_2_PO_4_(OH)_3_H_2_O
Locality: Kourondicko iron ore (magnetite) deposit, Faleme River Basin, Senegal
Source: Marcus Origlieri
Description: Colorless prismatic crystals
Measured chemistry: Al_2.00_P_1.00_O_4_(OH)_3_Â·H_2_O
x	intensity
399.193	0.241503
408.835	0.306744
418.477	0.284493
428.12	0.241676
437.762	0.303228
447.404	0.324327
457.047	0.351141
466.689	0.354883
476.331	0.334514
485.974	0.287664
495.616	0.27969
505.258	0.250401
514.901	0.199867
524.543	0.175169
534.185	0.204613
543.828	0.264241
553.47	0.299081
563.112	0.23225
572.755	0.184692
582.397	0.151823
592.039	0.133628
601.682	0.133514
611.324	0.16859
620.966	0.174924
630.609	0.183371
640.251	0.139009
649.893	0.104761
659.536	0.0825339
669.178	0.088397
678.82	0.0957043
688.463	0.101335
698.105	0.146564
707.747	0.187526
717.39	0.166808
727.032	0.142613
736.674	0.116394
746.317	0.0907926
755.959	0.06798
765.601	0.0546967
775.244	0.0501705
784.886	0.0500798
794.528	0.0519998
804.171	0.0588765
813.813	0.0718367
823.455	0.0837494
833.098	0.0852472
842.74	0.0834906
852.382	0.087544
862.025	0.0883163
871.667	0.0937248
881.309	0.100418
890.952	0.096916
900.594	0.102047
910.236	0.106916
919.879	0.114025
929.521	0.106827
939.163	0.0855481
948.806	0.0739116
958.448	0.0778177
968.09	0.0969043
977.733	0.138478
987.375	0.212793
997.017	0.301119
1006.66	0.320723
1016.3	0.287468
1025.94	0.271525
1035.59	0.230958
1045.23	0.17134
1054.87	0.22746
1064.51	0.279709
1074.16	0.276895
1083.8	0.250791
1093.44	0.206795
1103.08	0.167468
1112.72	0.128788
1122.37	0.114136
1132.01	0.143519
1141.65	0.152619
1151.3	0.135956
1160.94	0.148155
1170.58	0.114877
1180.22	0.115748
1189.86	0.141285
1199.51	0.142037
1209.15	0.0831227
1218.79	0.0425102
1228.43	0.0218707
1238.08	0.0148069
1247.72	0.0117683
1257.36	0.00995358
1267	0.0091935
1276.64	0.00895639
1286.29	0.00823932
1295.93	0.00785596
1305.57	0.00765087
1315.21	0.00761247
1324.86	0.00754116
1334.5	0.00755167
1344.14	0.00743891
1353.78	0.00757239
1363.43	0.00774979
1373.07	0.0077593
1382.71	0.00790413
1392.35	0.0082456
1401.99	0.00853718
1411.64	0.00874165
1421.28	0.00908154
1430.92	0.00953962
1440.57	0.0102623
1450.21	0.0112698
1459.85	0.0111153
1469.49	0.0115388
1479.13	0.0110817
1488.78	0.0108189
1498.42	0.0105927
1508.06	0.0105988
1517.7	0.0107043
1527.35	0.0114344
1536.99	0.0105176
1546.63	0.0104926
1556.27	0.0107994
1565.91	0.011153
1575.56	0.0115489
1585.2	0.0121458
1594.84	0.012988
1604.48	0.0138134
1614.13	0.0149947
1623.77	0.0159394
1633.41	0.0174535
1643.05	0.0200643
1652.7	0.0240048
1662.34	0.0285255
1671.98	0.0328587
1681.62	0.0318802
1691.27	0.0257282
1700.91	0.0193868
1710.55	0.0151426
1720.19	0.01261
1729.84	0.0109926
1739.48	0.00955893
1749.12	0.00839408
1758.76	0.00816355
1768.4	0.00787619
1778.05	0.00731241
1787.69	0.00688881
1797.33	0.00664248
1806.97	0.00603052
1816.62	0.0054765
1826.26	0.00581427
1835.9	0.00519862
1845.54	0.0051396
1855.18	0.00512962
1864.83	0.0051694
1874.47	0.0052812
1884.11	0.00465104
1893.75	0.00600911
1903.4	0.00597007
1913.04	0.00651889
1922.68	0.0061402
1932.32	0.00634493
1941.97	0.00698963
1951.61	0.00628122
1961.25	0.00844481
1970.89	0.00809701
1980.54	0.0104089
1990.18	0.00719802
1999.82	0.00821959
2009.46	0.00844732
2019.11	0.00861644
2028.75	0.00940617
2038.39	0.00878791
2048.03	0.00823167
2057.67	0.0094243
2067.32	0.00657849
2076.96	0.00902821
2086.6	0.00857557
2096.24	0.00849451
2105.89	0.00965918
2115.53	0.00726138
2125.17	0.00659924
2134.81	0.00673081
2144.45	0.00686445
2154.1	0.00749152
2163.74	0.00999182
2173.38	0.00919218
2183.02	0.0119543
2192.67	0.00888399
2202.31	0.0101732
2211.95	0.010677
2221.59	0.0119683
2231.24	0.0110623
2240.88	0.011772
2250.52	0.0117044
2260.16	0.0105724
2269.8	0.010885
2279.45	0.0110677
2289.09	0.0110592
2298.73	0.0107512
2308.38	0.0111674
2318.02	0.0115759
2327.66	0.0104136
2337.3	0.01029
2346.94	0.0107232
2356.59	0.00952056
2366.23	0.0101213
2375.87	0.00968293
2385.51	0.0098334
2395.16	0.00978576
2404.8	0.00957146
2414.44	0.0108508
2424.08	0.0114607
2433.72	0.0119163
2443.37	0.0121383
2453.01	0.0127202
2462.65	0.012545
2472.29	0.0124588
2481.94	0.0124482
2491.58	0.0131887
2501.22	0.0130857
2510.86	0.0131008
2520.51	0.0131043
2530.15	0.0135813
2539.79	0.0142255
2549.43	0.0146038
2559.07	0.0145945
2568.72	0.0145274
2578.36	0.0141472
2588	0.0148137
2597.64	0.014859
2607.29	0.0143486
2616.93	0.0152355
2626.57	0.0148637
2636.21	0.0153332
2645.86	0.0155391
2655.5	0.0152452
2665.14	0.0149898
2674.78	0.0148558
2684.43	0.0150196
2694.07	0.0155768
2703.71	0.0159795
2713.35	0.0164353
2722.99	0.0162984
2732.64	0.0171892
2742.28	0.017533
2751.92	0.018066
2761.56	0.0184128
2771.21	0.0188073
2780.85	0.0193317
2790.49	0.0201791
2800.13	0.0207072
2809.78	0.0212217
2819.42	0.0221425
2829.06	0.0227183
2838.7	0.0235354
2848.34	0.0245102
2857.99	0.0246501
2867.63	0.0251428
2877.27	0.0263822
2886.91	0.0269728
2896.56	0.0282447
2906.2	0.0302623
2915.84	0.0316467
2925.48	0.0331682
2935.13	0.03397
2944.77	0.0350552
2954.41	0.0374765
2964.05	0.0388994
2973.7	0.0405454
2983.34	0.0421765
2992.98	0.0443128
3002.62	0.0462874
3012.26	0.0488057
3021.91	0.0516527
3031.55	0.0557318
3041.19	0.0597856
3050.83	0.0648433
3060.48	0.0709474
3070.12	0.0788603
3079.76	0.0861351
3089.4	0.0925167
3099.05	0.0941804
3108.69	0.0899889
3118.33	0.084189
3127.97	0.0787423
3137.61	0.0740174
3147.26	0.0730511
3156.9	0.0732878
3166.54	0.0743605
3176.18	0.0776537
3185.83	0.0821141
3195.47	0.084544
3205.11	0.085449
3214.75	0.0858087
3224.4	0.0872262
3234.04	0.0937347
3243.68	0.106293
3253.32	0.125055
3262.97	0.142842
3272.61	0.142958
3282.25	0.123309
3291.89	0.105872
3301.53	0.0987339
3311.18	0.0986803
3320.82	0.103792
3330.46	0.107239
3340.1	0.106894
3349.75	0.10349
3359.39	0.0967448
3369.03	0.0876696
3378.67	0.0760606
3388.32	0.0668125
3397.96	0.0589734
3407.6	0.0539941
3417.24	0.0504011
3426.89	0.0472677
3436.53	0.0447102
3446.17	0.040614
3455.81	0.0394221
3465.45	0.040822
3475.1	0.0447207
3484.74	0.0550041
3494.38	0.0938503
3504.02	0.182987
3513.67	0.053475
3523.31	0.0249428
3532.95	0.0196741
3542.59	0.0178118
3552.24	0.0175924
3561.88	0.018637
3571.52	0.0206131
3581.16	0.0234196
3590.8	0.0324321
3600.45	0.0781694
3610.09	0.207353
3619.73	0.0189786
3629.37	0.00689669
3639.02	0.00492496
3648.66	0.00422881
3658.3	0.00360953
3667.94	0.00253418
3677.59	0.00271521
3687.23	0.0033448
3696.87	0.00312434
3706.51	0.00162213
3716.16	0.00186456
3725.8	0.00269578
3735.44	0.00317783
3745.08	0.0026488
3754.72	0.00236438
3764.37	0.00220465
3774.01	0.00359092
3783.65	0.00177692
3793.29	0.0023465
3802.94	0.00343942
3812.58	0.00205453
3822.22	0.00259931
3831.86	0.00259438
3841.51	0.00242609
3851.15	0.00318108
3860.79	0.00250018
3870.43	0.00258673
3880.07	0.00335451
3889.72	0.00311514
3899.36	0.00249112
3909	0.00396132
3918.64	0.00327225
3928.29	0.0026731
3937.93	0.00289012
3947.57	0.00381715
3957.21	0.00319471
3966.86	0.0028609
3976.5	0.00356919
3986.14	0.00300594
3995.78	0.00409371
