Measurement: Infrared, Infrared Data Processed
Mineral: Serandite
Rruff sample: R050261
Ideal chemistry: NaMn^2+^_2_Si_3_O_8_(OH)
Locality: Mont Saint-Hilaire, Rouville County, Quebec, Canada
Source: Marcus Origlieri
Description: Orange tabular single crystal associated with aegirine and microcline
Measured chemistry: Na_0.96_(Mn_0.92_Ca_0.06_Fe_0.01_)_2_Si_3.03_O_8_(OH)
x	intensity
50.1401	-1.09073e-05
52.0686	0.00578881
53.9971	0.010013
55.9255	0.00906781
57.854	0.0161141
59.7825	0.0229037
61.7109	0.0173727
63.6394	0.0132957
65.5679	0.0143014
67.4963	0.015212
69.4248	0.015627
71.3533	0.0172211
73.2817	0.0181531
75.2102	0.0171849
77.1387	0.016007
79.0671	0.0162936
80.9956	0.0174081
82.9241	0.0171143
84.8525	0.0171641
86.781	0.0180755
88.7095	0.0190818
90.6379	0.0185415
92.5664	0.018869
94.4948	0.020229
96.4233	0.0208314
98.3518	0.0212408
100.28	0.0222916
102.209	0.0217245
104.137	0.022032
106.066	0.0237133
107.994	0.0241115
109.923	0.0226646
111.851	0.0233546
113.779	0.0243614
115.708	0.0245037
117.636	0.0245065
119.565	0.0237098
121.493	0.0227891
123.422	0.0235349
125.35	0.0239893
127.279	0.0240871
129.207	0.0248053
131.136	0.0261916
133.064	0.0271698
134.993	0.0274975
136.921	0.0273776
138.85	0.0282653
140.778	0.0294266
142.707	0.0302258
144.635	0.0303851
146.563	0.0307816
148.492	0.0317993
150.42	0.0329544
152.349	0.0331654
154.277	0.0336069
156.206	0.0346294
158.134	0.0349314
160.063	0.0339964
161.991	0.0333759
163.92	0.0334482
165.848	0.0332568
167.777	0.0330544
169.705	0.0342191
171.633	0.0350172
173.562	0.0353393
175.49	0.0360303
177.419	0.0362692
179.347	0.0362472
181.276	0.036467
183.204	0.0362728
185.133	0.0366683
187.061	0.0376878
188.99	0.0387573
190.918	0.0394957
192.847	0.0401022
194.775	0.0408965
196.704	0.0409436
198.632	0.0407646
200.56	0.0408998
202.489	0.0411538
204.417	0.0404895
206.346	0.0396774
208.274	0.0388832
210.203	0.0376151
212.131	0.0367153
214.06	0.0360021
215.988	0.0356073
217.917	0.0357347
219.845	0.0360698
221.774	0.0369947
223.702	0.0381079
225.631	0.0390468
227.559	0.0395099
229.488	0.0391561
231.416	0.0385423
233.344	0.0380053
235.273	0.0376581
237.201	0.0368467
239.13	0.0360755
241.058	0.0355774
242.987	0.0352469
244.915	0.0353977
246.844	0.0364511
248.772	0.0374391
250.701	0.0382448
252.629	0.039372
254.558	0.0401091
256.486	0.0402651
258.414	0.0409383
260.343	0.0416623
262.271	0.0422417
264.2	0.0432847
266.128	0.044671
268.057	0.0456733
269.985	0.0467102
271.914	0.0476684
273.842	0.0481585
275.771	0.0487721
277.699	0.0498167
279.628	0.0501614
281.556	0.0501149
283.485	0.049687
285.413	0.0490269
287.341	0.0489616
289.27	0.0490255
291.198	0.0482598
293.127	0.0473358
295.055	0.0465264
296.984	0.045395
298.912	0.0441394
300.841	0.0429942
302.769	0.0416631
304.698	0.0399095
306.626	0.0383294
308.555	0.0371505
310.483	0.036054
312.411	0.0348579
314.34	0.0334732
316.269	0.0324552
318.197	0.0319371
320.125	0.0317822
322.054	0.0320239
323.982	0.033005
325.911	0.0338219
327.839	0.0348384
329.768	0.0358984
331.696	0.036921
333.625	0.0382575
335.553	0.0393219
337.482	0.0401807
339.41	0.0413264
341.339	0.042271
343.267	0.0427791
345.195	0.0430178
347.124	0.0429337
349.052	0.0428116
350.981	0.0429985
352.909	0.042937
354.838	0.0426661
356.766	0.0423411
358.695	0.0418681
360.623	0.0412816
362.552	0.0411885
364.48	0.0410928
366.409	0.0410325
368.337	0.0414469
370.265	0.0420539
372.194	0.0425154
374.122	0.0431199
376.051	0.0436953
377.979	0.0442464
379.908	0.0448325
381.836	0.0454409
383.765	0.046195
385.693	0.0472539
387.622	0.0484272
389.55	0.0491769
391.479	0.0497037
393.407	0.0502266
395.336	0.0504385
397.264	0.0510632
399.192	0.0520813
401.121	0.0530022
403.049	0.0541128
404.978	0.0555086
406.906	0.0565675
408.835	0.0577051
410.763	0.0588213
412.692	0.0597623
414.62	0.0608311
416.549	0.0616731
418.477	0.0618881
420.406	0.0616746
422.334	0.0616853
424.262	0.0621278
426.191	0.0626553
428.12	0.0637537
430.048	0.0653197
431.976	0.0670716
433.905	0.0686869
435.833	0.0700607
437.762	0.071162
439.69	0.0721369
441.619	0.0726514
443.547	0.0727243
445.476	0.0722734
447.404	0.071174
449.333	0.0703701
451.261	0.069523
453.19	0.0691092
455.118	0.0690747
457.046	0.0692369
458.975	0.0692597
460.903	0.0694205
462.832	0.0698345
464.76	0.0696889
466.689	0.0690645
468.617	0.0686509
470.546	0.0675034
472.474	0.0662402
474.403	0.0653722
476.331	0.0643611
478.26	0.062922
480.188	0.0614138
482.116	0.0604302
484.045	0.0597374
485.974	0.0583891
487.902	0.0566111
489.83	0.055331
491.759	0.0545823
493.687	0.0540452
495.616	0.0527368
497.544	0.0513401
499.473	0.0501845
501.401	0.0486609
503.33	0.0468105
505.258	0.0459709
507.187	0.045936
509.115	0.046239
511.043	0.0463603
512.972	0.0463884
514.9	0.0462203
516.829	0.0461802
518.757	0.0467057
520.686	0.0475809
522.614	0.0485391
524.543	0.0492177
526.471	0.0499039
528.4	0.0502981
530.328	0.0509522
532.257	0.0511604
534.185	0.0499537
536.114	0.049031
538.042	0.0486691
539.971	0.0476698
541.899	0.0464103
543.827	0.0456288
545.756	0.0446826
547.684	0.0436998
549.613	0.0432361
551.541	0.043008
553.47	0.042141
555.398	0.0412698
557.327	0.0408778
559.255	0.0407788
561.184	0.04045
563.112	0.0398811
565.041	0.0396863
566.969	0.039483
568.898	0.0395778
570.826	0.0397155
572.755	0.0400032
574.683	0.0405005
576.611	0.0408592
578.54	0.041012
580.468	0.04108
582.397	0.0412352
584.325	0.0410242
586.254	0.0408856
588.182	0.0411389
590.111	0.0410608
592.039	0.0406705
593.968	0.0406718
595.896	0.0408486
597.824	0.0409184
599.753	0.0408754
601.682	0.0406455
603.61	0.0402502
605.538	0.0402932
607.467	0.0406717
609.395	0.0409279
611.324	0.0408049
613.252	0.041806
615.181	0.0428191
617.109	0.0431332
619.038	0.0430599
620.966	0.043771
622.894	0.04531
624.823	0.0473201
626.751	0.0496387
628.68	0.052056
630.608	0.0544311
632.537	0.0562861
634.465	0.0575233
636.394	0.058692
638.322	0.0597727
640.251	0.060849
642.179	0.0622778
644.108	0.063927
646.036	0.0654964
647.965	0.0667187
649.893	0.0679957
651.822	0.0687803
653.75	0.0692046
655.678	0.0690025
657.607	0.0679368
659.535	0.066244
661.464	0.0644369
663.392	0.062719
665.321	0.0612737
667.249	0.0610677
669.178	0.0610581
671.106	0.0613061
673.035	0.0621747
674.963	0.0634765
676.892	0.0648399
678.82	0.0660924
680.749	0.0667925
682.677	0.0675288
684.606	0.0680125
686.534	0.0670679
688.462	0.0652303
690.391	0.0631192
692.319	0.0615407
694.248	0.0603969
696.176	0.060059
698.105	0.0597766
700.033	0.0611432
