Measurement: Infrared, Infrared Data Processed
Mineral: Serandite
Rruff sample: R050261
Ideal chemistry: NaMn^2+^_2_Si_3_O_8_(OH)
Locality: Mont Saint-Hilaire, Rouville County, Quebec, Canada
Source: Marcus Origlieri
Description: Orange tabular single crystal associated with aegirine and microcline
Measured chemistry: Na_0.96_(Mn_0.92_Ca_0.06_Fe_0.01_)_2_Si_3.03_O_8_(OH)
x	intensity
395.336	0.0402971
404.978	0.052567
414.62	0.0634779
424.263	0.0619523
433.905	0.0731137
443.547	0.0827387
453.19	0.0769195
462.832	0.0790845
472.474	0.0753732
482.117	0.0641333
491.759	0.0505097
501.401	0.036205
511.044	0.0327661
520.686	0.0327546
530.328	0.0385205
539.971	0.0320025
549.613	0.0239894
559.255	0.0190233
568.898	0.0171338
578.54	0.0167999
588.182	0.0170758
597.825	0.0179308
607.467	0.0197613
617.109	0.0221576
626.752	0.0256056
636.394	0.0325824
646.036	0.0434135
655.679	0.0471996
665.321	0.0335197
674.963	0.033828
684.606	0.0386417
694.248	0.0248401
703.89	0.0241788
713.533	0.0206188
723.175	0.0179628
732.817	0.019217
742.46	0.0215136
752.102	0.0236969
761.744	0.0259316
771.387	0.0286599
781.029	0.0312793
790.671	0.0340137
800.314	0.0363684
809.956	0.038811
819.598	0.0411279
829.241	0.0432591
838.883	0.045229
848.525	0.0476271
858.168	0.0510082
867.81	0.0558164
877.452	0.0644918
887.095	0.0777106
896.737	0.0943347
906.379	0.10393
916.022	0.0990024
925.664	0.0888421
935.306	0.0776693
944.949	0.0685716
954.591	0.0645978
964.233	0.0621476
973.876	0.0602008
983.518	0.0624801
993.16	0.0671865
1002.8	0.0680643
1012.45	0.0675941
1022.09	0.0692439
1031.73	0.0702224
1041.37	0.0689321
1051.01	0.0646054
1060.66	0.0579006
1070.3	0.0499715
1079.94	0.0410134
1089.58	0.0337345
1099.23	0.0293021
1108.87	0.027397
1118.51	0.0244444
1128.15	0.0189598
1137.8	0.0126792
1147.44	0.00717712
1157.08	0.00378042
1166.72	0.00230209
1176.37	0.00192873
1186.01	0.00190775
1195.65	0.00212607
1205.29	0.00218287
1214.93	0.00254569
1224.58	0.0027317
1234.22	0.0030198
1243.86	0.00352644
1253.5	0.00376182
1263.15	0.00405775
1272.79	0.00424777
1282.43	0.00487345
1292.07	0.00491642
1301.71	0.00541257
1311.36	0.00582925
1321	0.00623734
1330.64	0.00654849
1340.28	0.00737267
1349.93	0.00800053
1359.57	0.0090917
1369.21	0.010289
1378.85	0.0114223
1388.5	0.0124862
1398.14	0.0117421
1407.78	0.00976946
1417.42	0.00887674
1427.07	0.00743254
1436.71	0.00753898
1446.35	0.00676365
1455.99	0.00739486
1465.63	0.00649669
1475.28	0.0064794
1484.92	0.00613576
1494.56	0.00635028
1504.2	0.00645329
1513.85	0.00606622
1523.49	0.00630775
1533.13	0.00596638
1542.77	0.00631782
1552.42	0.00574556
1562.06	0.00600089
1571.7	0.00584932
1581.34	0.00563964
1590.98	0.005455
1600.63	0.005454
1610.27	0.00542269
1619.91	0.00541328
1629.55	0.00533178
1639.2	0.00506909
1648.84	0.00540263
1658.48	0.00500637
1668.12	0.00541538
1677.77	0.00490531
1687.41	0.00501711
1697.05	0.00549445
1706.69	0.00504
1716.34	0.00581218
1725.98	0.00444028
1735.62	0.00490102
1745.26	0.00454401
1754.9	0.00432153
1764.55	0.00423991
1774.19	0.00433815
1783.83	0.00409793
1793.47	0.00418203
1803.12	0.00367312
1812.76	0.00364119
1822.4	0.00335877
1832.04	0.00340936
1841.69	0.0031511
1851.33	0.00298154
1860.97	0.00254481
1870.61	0.00302187
1880.26	0.00289041
1889.9	0.00264106
1899.54	0.00257177
1909.18	0.00221867
1918.82	0.00237643
1928.47	0.00263538
1938.11	0.0023028
1947.75	0.00221734
1957.39	0.00221311
1967.04	0.00129392
1976.68	0.00246374
1986.32	0.00179301
1995.96	0.0017216
2005.61	5.38225e-05
2015.25	0.00171589
2024.89	0.0015585
2034.53	0.00056246
2044.17	0.000364766
2053.82	0.00136433
2063.46	0.00113605
2073.1	-0.000104306
2082.74	0.000182244
2092.39	0.00135805
2102.03	0.000870288
2111.67	0.000151788
2121.31	0.00117295
2130.96	0.00213507
2140.6	0.00197783
2150.24	0.000427711
2159.88	0.00102856
2169.53	0.001734
2179.17	0.00211816
2188.81	0.00192319
2198.45	0.00120547
2208.09	0.000999588
2217.74	0.00185924
2227.38	0.00167355
2237.02	0.00219259
2246.66	0.00172962
2256.31	0.00149305
2265.95	0.00176694
2275.59	0.00197329
2285.23	0.00216138
2294.88	0.00226993
2304.52	0.00254189
2314.16	0.00265098
2323.8	0.00247729
2333.45	0.00328719
2343.09	0.00360741
2352.73	0.00350319
2362.37	0.00465255
2372.01	0.00377677
2381.66	0.00281628
2391.3	0.0028961
2400.94	0.00228681
2410.58	0.00249523
2420.23	0.00218573
2429.87	0.00271872
2439.51	0.00198038
2449.15	0.00176493
2458.8	0.00235544
2468.44	0.00230062
2478.08	0.00223937
2487.72	0.00210772
2497.36	0.00203924
2507.01	0.00226247
2516.65	0.00217563
2526.29	0.00211834
2535.93	0.00161591
2545.58	0.00155581
2555.22	0.00108148
2564.86	0.00119092
2574.5	0.00107198
2584.14	0.00102197
2593.79	0.00112546
2603.43	0.00125741
2613.07	0.00133382
2622.72	0.00123641
2632.36	0.00106099
2642	0.00097137
2651.64	0.00124627
2661.28	0.00133147
2670.93	0.00152324
2680.57	0.00190505
2690.21	0.00140988
2699.85	0.00160149
2709.5	0.00187071
2719.14	0.00185967
2728.78	0.00178494
2738.42	0.00193627
2748.07	0.00213389
2757.71	0.00170254
2767.35	0.00201337
2776.99	0.00243345
2786.63	0.00221395
2796.28	0.00255535
2805.92	0.00235232
2815.56	0.00212161
2825.2	0.00232291
2834.85	0.00263173
2844.49	0.00210868
2854.13	0.00260681
2863.77	0.00242014
2873.41	0.00259296
2883.06	0.00213223
2892.7	0.00198451
2902.34	0.00238408
2911.99	0.00199835
2921.63	0.002576
2931.27	0.00253167
2940.91	0.00178415
2950.55	0.00247617
2960.2	0.00146954
2969.84	0.00154568
2979.48	0.00163967
2989.12	0.00174566
2998.77	0.00170535
3008.41	0.00118786
3018.05	0.00271223
3027.69	0.00155926
3037.34	0.00184096
3046.98	0.0017693
3056.62	0.00170455
3066.26	0.0014573
3075.9	0.00148212
3085.55	0.00144862
3095.19	0.00189513
3104.83	0.00135693
3114.47	0.00134765
3124.12	0.00177479
3133.76	0.00170514
3143.4	0.00139209
3153.04	0.001385
3162.68	0.00125219
3172.33	0.000927855
3181.97	0.00159912
3191.61	0.00122007
3201.26	0.00131627
3210.9	0.00182375
3220.54	0.00157405
3230.18	0.00108688
3239.82	0.000638075
3249.47	0.00173495
3259.11	0.000451535
3268.75	0.000228897
3278.39	0.000688063
3288.04	0.000406453
3297.68	0.000534062
3307.32	1.61585e-05
3316.96	0.00032381
3326.61	0.000616445
3336.25	8.30328e-05
3345.89	0.000439383
3355.53	0.000538252
3365.17	0.000318472
3374.82	0.00121751
3384.46	0.000154552
3394.1	0.000745874
3403.74	0.000514521
3413.39	0.00101959
3423.03	4.14861e-05
3432.67	3.98564e-05
3442.31	0.000647417
3451.95	0.000884125
3461.6	0.000724061
3471.24	0.00118628
3480.88	-0.000890137
3490.53	-0.000302923
3500.17	0.000164607
3509.81	0.000820313
3519.45	0.000202758
3529.09	0.000922096
3538.74	0.000124423
3548.38	0.000512684
3558.02	0.000184233
3567.66	0.00080148
3577.31	0.000484048
3586.95	0.000671986
3596.59	0.00117302
3606.23	-0.000108071
3615.88	-0.000200269
3625.52	-0.000289101
3635.16	-0.000768636
3644.8	0.000211917
3654.44	-0.000303588
3664.09	-0.000446664
3673.73	0.00156872
3683.37	-0.000689758
3693.01	-0.000823063
3702.66	-0.00157046
3712.3	0.000777381
3721.94	-0.000841155
3731.58	-3.29741e-05
3741.22	0.00041646
3750.87	0.00224196
3760.51	8.88213e-07
3770.15	0.000344087
3779.8	0.000239887
3789.44	-0.00140571
3799.08	-0.000421292
3808.72	-0.000154203
3818.36	-0.000394508
3828.01	-0.000380881
3837.65	0.0019301
3847.29	-0.000621245
3856.93	0.000941514
3866.58	-0.000695026
3876.22	-0.000846107
3885.86	0.00117622
3895.5	-0.00064809
3905.14	0.000326202
3914.79	-0.000465527
3924.43	-0.000523487
3934.07	-0.00113023
3943.71	0.000105001
3953.36	-0.00064664
3963	-0.000595962
3972.64	-0.000987104
3982.28	-0.00177567
3991.93	-0.000740778
