Measurement: Infrared, Infrared Data Processed
Mineral: Shortite
Rruff sample: R050248
Ideal chemistry: Na_2_Ca_2_(CO_3_)_3_
Locality: Stauffer mine, Green River, Wyoming, USA
Source: Marcus Origlieri
Description: Colorless wedge-shaped single crystal
Measured chemistry: Na_2.00_Ca_2.00_(CO_3_)_3_ ; CO2 not measured but estimated by difference and stoichiometry.
x	intensity
50.1401	0.0280272
52.0686	0.0150484
53.9971	0.0167476
55.9255	0.0135698
57.854	0.0150139
59.7825	0.0187961
61.7109	0.0161956
63.6394	0.0184575
65.5679	0.0162881
67.4963	0.0169521
69.4248	0.0208611
71.3533	0.0220851
73.2817	0.0198811
75.2102	0.0203211
77.1387	0.0215414
79.0671	0.0233566
80.9956	0.0249757
82.9241	0.0247276
84.8525	0.022177
86.781	0.0224167
88.7095	0.0250867
90.6379	0.0272172
92.5664	0.027717
94.4948	0.0277846
96.4233	0.0271986
98.3518	0.0286468
100.28	0.0308278
102.209	0.0319494
104.137	0.0314435
106.066	0.0319642
107.994	0.0332052
109.923	0.0334971
111.851	0.0336717
113.779	0.035494
115.708	0.0371419
117.636	0.0382213
119.565	0.039341
121.493	0.0406233
123.422	0.0410352
125.35	0.0423162
127.279	0.0433761
129.207	0.0453046
131.136	0.0477304
133.064	0.0503652
134.993	0.0504008
136.921	0.0516771
138.85	0.0544246
140.778	0.0568687
142.707	0.0577309
144.635	0.0585797
146.563	0.0578254
148.492	0.0567041
150.42	0.0527002
152.349	0.0495689
154.277	0.0491931
156.206	0.0502971
158.134	0.0517108
160.063	0.053893
161.991	0.0564432
163.92	0.0592394
165.848	0.0614573
167.777	0.0631072
169.705	0.0646987
171.633	0.0663791
173.562	0.067664
175.49	0.0695223
177.419	0.0702671
179.347	0.0681818
181.276	0.0653132
183.204	0.0650729
185.133	0.0677891
187.061	0.0702499
188.99	0.0715048
190.918	0.0736427
192.847	0.0748016
194.775	0.0747151
196.704	0.0741762
198.632	0.0729709
200.56	0.0707551
202.489	0.0693418
204.417	0.0679014
206.346	0.0676041
208.274	0.0680639
210.203	0.0695615
212.131	0.0713397
214.06	0.0730222
215.988	0.0745225
217.917	0.0760959
219.845	0.0771702
221.774	0.0783084
223.702	0.0788763
225.631	0.0791132
227.559	0.0787553
229.488	0.0783477
231.416	0.0778933
233.344	0.0775921
235.273	0.0778361
237.201	0.0784252
239.13	0.079055
241.058	0.0804569
242.987	0.0814411
244.915	0.0815983
246.844	0.0809699
248.772	0.0797847
250.701	0.0785129
252.629	0.0777385
254.558	0.0765514
256.486	0.0753486
258.414	0.0746467
260.343	0.0741456
262.271	0.0735794
264.2	0.0737264
266.128	0.075444
268.057	0.0778301
269.985	0.0796646
271.914	0.0807457
273.842	0.0807978
275.771	0.0803859
277.699	0.079522
279.628	0.0781768
281.556	0.0769945
283.485	0.076165
285.413	0.0751133
287.341	0.0739522
289.27	0.0727774
291.198	0.0712861
293.127	0.0696635
295.055	0.068376
296.984	0.0668371
298.912	0.0654301
300.841	0.0642815
302.769	0.0633861
304.698	0.0624552
306.626	0.0617793
308.555	0.0617155
310.483	0.0617231
312.411	0.0615267
314.34	0.0610286
316.269	0.0599747
318.197	0.0590202
320.125	0.0581282
322.054	0.0568882
323.982	0.0555197
325.911	0.0543187
327.839	0.0534658
329.768	0.0521897
331.696	0.0505751
333.625	0.0493308
335.553	0.048139
337.482	0.0471824
339.41	0.0464385
341.339	0.045494
343.267	0.0442042
345.195	0.0430097
347.124	0.0417325
349.052	0.0407709
350.981	0.0398475
352.909	0.0386863
354.838	0.0374089
356.766	0.0362677
358.695	0.0349838
360.623	0.0336157
362.552	0.0324931
364.48	0.0317272
366.409	0.0305342
368.337	0.0294192
370.265	0.0288974
372.194	0.0284225
374.122	0.0279514
376.051	0.0274966
377.979	0.0269994
379.908	0.0265276
381.836	0.0260881
383.765	0.0259535
385.693	0.0257272
387.622	0.0255518
389.55	0.0253182
391.479	0.024899
393.407	0.0246486
395.336	0.024439
397.264	0.0244515
399.192	0.0246652
401.121	0.0245311
403.049	0.0247294
404.978	0.025187
406.906	0.0251252
408.835	0.0249628
410.763	0.0249062
412.692	0.0247851
414.62	0.0251356
416.549	0.0253999
418.477	0.0254587
420.406	0.025473
422.334	0.025354
424.262	0.0251029
426.191	0.0249394
428.12	0.0248099
430.048	0.0249465
431.976	0.0249623
433.905	0.0249363
435.833	0.0251313
437.762	0.0251541
439.69	0.0249827
441.619	0.0249881
443.547	0.0250571
445.476	0.0252404
447.404	0.0254178
449.333	0.0254206
451.261	0.0255918
453.19	0.0259145
455.118	0.0261424
457.046	0.0264983
458.975	0.0266599
460.903	0.0263946
462.832	0.0262343
464.76	0.0267769
466.689	0.0268993
468.617	0.0267839
470.546	0.0264436
472.474	0.026522
474.403	0.0268416
476.331	0.0269252
478.26	0.0264487
480.188	0.0260729
482.116	0.0262335
484.045	0.0264913
485.974	0.0264067
487.902	0.0260876
489.83	0.0259289
491.759	0.0261596
493.687	0.0263107
495.616	0.0262213
497.544	0.0261667
499.473	0.0264555
501.401	0.0268411
503.33	0.0269987
505.258	0.0266881
507.187	0.0266423
509.115	0.0267696
511.043	0.0266914
512.972	0.0263277
514.9	0.0258446
516.829	0.025784
518.757	0.0263714
520.686	0.0266565
522.614	0.0265452
524.543	0.0265685
526.471	0.0268796
528.4	0.02678
530.328	0.0266465
532.257	0.0266185
534.185	0.0264932
536.114	0.0264733
538.042	0.0266722
539.971	0.0266987
541.899	0.0266286
543.827	0.0268884
545.756	0.0271135
547.684	0.0272077
549.613	0.0274625
551.541	0.0276956
553.47	0.0276292
555.398	0.0277995
557.327	0.0280831
559.255	0.0283577
561.184	0.028364
563.112	0.0280703
565.041	0.0278936
566.969	0.0277899
568.898	0.0283375
570.826	0.0287612
572.755	0.0288343
574.683	0.0289701
576.611	0.0294164
578.54	0.0293505
580.468	0.0293751
582.397	0.0297608
584.325	0.0298878
586.254	0.0298909
588.182	0.0296802
590.111	0.0292097
592.039	0.0287464
593.968	0.0285153
595.896	0.0286081
597.824	0.0283705
599.753	0.0282848
601.682	0.0276896
603.61	0.026952
605.538	0.0267213
607.467	0.0265667
609.395	0.0264806
611.324	0.026909
613.252	0.027358
615.181	0.0279136
617.109	0.028267
619.038	0.0279636
620.966	0.0279876
622.894	0.0288135
624.823	0.0296567
626.751	0.0311244
628.68	0.0331086
630.608	0.0348069
632.537	0.0359716
634.465	0.0361437
636.394	0.0359254
638.322	0.0362536
640.251	0.0366302
642.179	0.0367396
644.108	0.0368936
646.036	0.0372183
647.965	0.0372511
649.893	0.0372474
651.822	0.037177
653.75	0.0377024
655.678	0.0380939
657.607	0.0385381
659.535	0.0387271
661.464	0.0387714
663.392	0.0387916
665.321	0.0387525
667.249	0.0390479
669.178	0.0391178
671.106	0.0392293
673.035	0.0396547
674.963	0.0400121
676.892	0.0406245
678.82	0.0408904
680.749	0.0405793
682.677	0.0413644
684.606	0.043019
686.534	0.043617
688.462	0.0447223
690.391	0.0491437
692.319	0.0596255
694.248	0.0654345
696.176	0.0562435
698.105	0.0463563
700.033	0.0432871
