Measurement: Infrared, Infrared Data Processed
Mineral: Siderite
Rruff sample: R050262
Ideal chemistry: Fe^2+^CO_3_
Locality: Panasqueira mine, Barroca Grande, Beira Baixa, Portugal
Source: Marcus Origlieri
Description: Group of yellowish brown flattened twinned crystals
Measured chemistry: (Fe_0.71_Mg_0.24_Mn_0.05_)_Σ=1_CO_3_ ; light :  (Fe_0.60_Mg_0.36_Mn_0.04_)_Σ=1_CO_3_ ; intermediate : (Fe_0.54_Mg_0.42_Mn_0.04_)_Σ=1_CO_3_ ; darker :  (Mg_0.54_Fe_0.42_Mn_0.04_)_Σ=1_CO_3_ darkest = magnesite
x	intensity
399.193	0
408.835	0.0741253
418.477	0.0533851
428.12	0.0363403
437.762	0.0257381
447.404	0.020831
457.047	0.0180245
466.689	0.0159693
476.331	0.0145195
485.974	0.0133596
495.616	0.0134638
505.258	0.0130541
514.901	0.0115751
524.543	0.0112266
534.185	0.0112402
543.828	0.0113258
553.47	0.0105589
563.112	0.0111057
572.755	0.0108545
582.397	0.0109477
592.039	0.0115731
601.682	0.0116067
611.324	0.0118737
620.966	0.0125812
630.609	0.0129483
640.251	0.0135852
649.893	0.015091
659.536	0.0159907
669.178	0.0164851
678.82	0.0175005
688.463	0.018642
698.105	0.0200789
707.747	0.0232119
717.39	0.0285762
727.032	0.0426607
736.674	0.0992152
746.317	0.0453744
755.959	0.0161046
765.601	0.0156582
775.244	0.0172161
784.886	0.0188142
794.528	0.0206267
804.171	0.0229572
813.813	0.0266162
823.455	0.0319103
833.098	0.042871
842.74	0.0640413
852.382	0.107924
862.025	0.193707
871.667	0.188173
881.309	0.0975392
890.952	0.0306351
900.594	0.0275598
910.236	0.0293113
919.879	0.0307221
929.521	0.0321002
939.163	0.0328714
948.806	0.0333071
958.448	0.0345604
968.09	0.035978
977.733	0.0374845
987.375	0.039121
997.017	0.0411488
1006.66	0.0430409
1016.3	0.0451877
1025.94	0.0473016
1035.59	0.0499995
1045.23	0.0528446
1054.87	0.0550923
1064.51	0.0571766
1074.16	0.0585128
1083.8	0.0601466
1093.44	0.0611016
1103.08	0.0625003
1112.72	0.0646457
1122.37	0.0676849
1132.01	0.0702662
1141.65	0.073617
1151.3	0.0771507
1160.94	0.0814096
1170.58	0.0854965
1180.22	0.0899441
1189.86	0.0944226
1199.51	0.0988867
1209.15	0.103279
1218.79	0.107931
1228.43	0.113396
1238.08	0.119459
1247.72	0.126553
1257.36	0.134191
1267	0.142167
1276.64	0.151499
1286.29	0.161583
1295.93	0.172906
1305.57	0.185342
1315.21	0.199178
1324.86	0.213752
1334.5	0.229938
1344.14	0.247561
1353.78	0.267633
1363.43	0.289457
1373.07	0.314566
1382.71	0.342242
1392.35	0.367173
1401.99	0.383768
1411.64	0.390596
1421.28	0.374421
1430.92	0.346867
1440.57	0.320096
1450.21	0.296037
1459.85	0.270631
1469.49	0.246181
1479.13	0.222564
1488.78	0.198302
1498.42	0.173106
1508.06	0.147611
1517.7	0.123628
1527.35	0.101753
1536.99	0.0825935
1546.63	0.0644137
1556.27	0.0443485
1565.91	0.0236685
1575.56	0.0140367
1585.2	0.0126663
1594.84	0.0125113
1604.48	0.011531
1614.13	0.0106306
1623.77	0.00902293
1633.41	0.00828592
1643.05	0.00718503
1652.7	0.00608675
1662.34	0.00612538
1671.98	0.00582291
1681.62	0.00517013
1691.27	0.00494848
1700.91	0.00395047
1710.55	0.0042095
1720.19	0.00382119
1729.84	0.00326895
1739.48	0.00300857
1749.12	0.00343038
1758.76	0.00371132
1768.4	0.00443523
1778.05	0.00535258
1787.69	0.00596175
1797.33	0.00762595
1806.97	0.0101043
1816.62	0.0101998
1826.26	0.00917001
1835.9	0.00635714
1845.54	0.00454028
1855.18	0.00412984
1864.83	0.00399813
1874.47	0.00428843
1884.11	0.00435934
1893.75	0.00385776
1903.4	0.00412359
1913.04	0.00484995
1922.68	0.00347692
1932.32	0.0044518
1941.97	0.00326497
1951.61	0.00257154
1961.25	0.00448734
1970.89	0.00121085
1980.54	0.00420583
1990.18	0.00425168
1999.82	0.00284972
2009.46	0.00383372
2019.11	0.00502831
2028.75	0.00554034
2038.39	0.00429457
2048.03	0.00880327
2057.67	0.00642347
2067.32	0.00581926
2076.96	0.00725193
2086.6	0.00827591
2096.24	0.00713315
2105.89	0.00875727
2115.53	0.00777317
2125.17	0.0080815
2134.81	0.00611023
2144.45	0.00512247
2154.1	0.00178185
2163.74	0.00675925
2173.38	0.00689302
2183.02	0.00876545
2192.67	0.00652215
2202.31	0.00561406
2211.95	0.00999194
2221.59	0.00966028
2231.24	0.00857722
2240.88	0.0102698
2250.52	0.00956304
2260.16	0.0111481
2269.8	0.0105474
2279.45	0.0118169
2289.09	0.0112161
2298.73	0.0121796
2308.38	0.0125453
2318.02	0.0127512
2327.66	0.0131185
2337.3	0.0128865
2346.94	0.0131206
2356.59	0.012831
2366.23	0.0119936
2375.87	0.0128504
2385.51	0.0123957
2395.16	0.0121943
2404.8	0.012867
2414.44	0.0123362
2424.08	0.0125494
2433.72	0.0125794
2443.37	0.0134334
2453.01	0.0141155
2462.65	0.0132281
2472.29	0.013301
2481.94	0.0157603
2491.58	0.0169885
2501.22	0.0181781
2510.86	0.0194857
2520.51	0.0176697
2530.15	0.0187887
2539.79	0.0163733
2549.43	0.0152946
2559.07	0.0144433
2568.72	0.0157805
2578.36	0.0145248
2588	0.0142334
2597.64	0.0140819
2607.29	0.0148926
2616.93	0.0145128
2626.57	0.0148544
2636.21	0.015313
2645.86	0.014528
2655.5	0.0148271
2665.14	0.0146663
2674.78	0.0141525
2684.43	0.0130668
2694.07	0.0134766
2703.71	0.0146138
2713.35	0.0136982
2722.99	0.0138948
2732.64	0.014484
2742.28	0.0139606
2751.92	0.0139581
2761.56	0.0137971
2771.21	0.0138014
2780.85	0.0145547
2790.49	0.0144679
2800.13	0.0141894
2809.78	0.0141067
2819.42	0.0145775
2829.06	0.014689
2838.7	0.0152109
2848.34	0.0148503
2857.99	0.0158638
2867.63	0.015717
2877.27	0.016349
2886.91	0.0171011
2896.56	0.0166717
2906.2	0.0171157
2915.84	0.0162957
2925.48	0.0162953
2935.13	0.0159414
2944.77	0.0164412
2954.41	0.0165969
2964.05	0.0171818
2973.7	0.016654
2983.34	0.0174182
2992.98	0.0183741
3002.62	0.0187266
3012.26	0.0190411
3021.91	0.0184103
3031.55	0.0184567
3041.19	0.0192988
3050.83	0.0193423
3060.48	0.0201389
3070.12	0.0203516
3079.76	0.0212399
3089.4	0.0210537
3099.05	0.0211754
3108.69	0.0235969
3118.33	0.023443
3127.97	0.0225919
3137.61	0.0251868
3147.26	0.0243713
3156.9	0.0244446
3166.54	0.025138
3176.18	0.0252242
3185.83	0.0239455
3195.47	0.0260175
3205.11	0.0254323
3214.75	0.0265494
3224.4	0.0251727
3234.04	0.0279169
3243.68	0.02621
3253.32	0.0262715
3262.97	0.0271981
3272.61	0.0271105
3282.25	0.0263206
3291.89	0.026949
3301.53	0.0270395
3311.18	0.0268884
3320.82	0.0275809
3330.46	0.0284862
3340.1	0.0276948
3349.75	0.0269823
3359.39	0.0291761
3369.03	0.0289648
3378.67	0.0289191
3388.32	0.0302896
3397.96	0.0273163
3407.6	0.0286698
3417.24	0.0287273
3426.89	0.026308
3436.53	0.0294929
3446.17	0.0275868
3455.81	0.0284096
3465.45	0.0288487
3475.1	0.0297385
3484.74	0.0301031
3494.38	0.0300241
3504.02	0.0296
3513.67	0.0283263
3523.31	0.0281418
3532.95	0.030107
3542.59	0.0301137
3552.24	0.0287055
3561.88	0.0308044
3571.52	0.0278508
3581.16	0.0288279
3590.8	0.0294982
3600.45	0.0316234
3610.09	0.028673
3619.73	0.0290754
3629.37	0.0285409
3639.02	0.0280871
3648.66	0.0284647
3658.3	0.030627
3667.94	0.02796
3677.59	0.0292862
3687.23	0.029056
3696.87	0.0300122
3706.51	0.0297307
3716.16	0.0301634
3725.8	0.0314721
3735.44	0.0320546
3745.08	0.0306639
3754.72	0.0303894
3764.37	0.0294849
3774.01	0.0300556
3783.65	0.0290629
3793.29	0.032316
3802.94	0.0311498
3812.58	0.0316331
3822.22	0.0331897
3831.86	0.0309584
3841.51	0.0307496
3851.15	0.0323442
3860.79	0.0324477
3870.43	0.0324984
3880.07	0.0314227
3889.72	0.0354938
3899.36	0.0339038
3909	0.0335187
3918.64	0.0343553
3928.29	0.0312692
3937.93	0.0348682
3947.57	0.0344461
3957.21	0.0338501
3966.86	0.0329099
3976.5	0.0319383
3986.14	0.0353559
3995.78	0.0327186
