Measurement: Infrared, Infrared Data Processed
Mineral: Siderite
Rruff sample: R040034
Ideal chemistry: Fe^2+^CO_3_
Locality: Pribram, Czech Republic
Source: University of Arizona Mineral Museum
Description: Group of tan colored flattened rhombohedra
Measured chemistry: (Fe_0.72_Mg_0.24_Mn_0.03_Ca_0.01_)_Î£=1_C_1.00_O_3_; CO_2_ estimated by difference
x	intensity
399.193	0
408.835	0.0622508
418.477	0.0455112
428.12	0.0314024
437.762	0.0228741
447.404	0.0186884
457.047	0.0166996
466.689	0.0160478
476.331	0.0149346
485.974	0.0140144
495.616	0.0137137
505.258	0.0131612
514.901	0.0130723
524.543	0.0128532
534.185	0.0126684
543.828	0.0120689
553.47	0.011885
563.112	0.01229
572.755	0.0118111
582.397	0.0120288
592.039	0.012406
601.682	0.0127434
611.324	0.0131249
620.966	0.0142
630.609	0.01424
640.251	0.0150102
649.893	0.0157358
659.536	0.0165934
669.178	0.0182446
678.82	0.0194571
688.463	0.020823
698.105	0.0234889
707.747	0.0271179
717.39	0.0339588
727.032	0.0521844
736.674	0.108202
746.317	0.0409633
755.959	0.0177395
765.601	0.0179199
775.244	0.0198272
784.886	0.0218646
794.528	0.0243121
804.171	0.0269243
813.813	0.0307142
823.455	0.0369537
833.098	0.051365
842.74	0.074248
852.382	0.125188
862.025	0.21451
871.667	0.193573
881.309	0.0859984
890.952	0.0292007
900.594	0.0285093
910.236	0.0294202
919.879	0.0307044
929.521	0.0318971
939.163	0.0334466
948.806	0.0347677
958.448	0.0362437
968.09	0.0378095
977.733	0.0394128
987.375	0.041496
997.017	0.0431941
1006.66	0.0450214
1016.3	0.047125
1025.94	0.0493357
1035.59	0.0516138
1045.23	0.0547023
1054.87	0.0572078
1064.51	0.0596376
1074.16	0.062852
1083.8	0.0654363
1093.44	0.0664985
1103.08	0.0686154
1112.72	0.0709285
1122.37	0.0737213
1132.01	0.0770573
1141.65	0.0806291
1151.3	0.0848697
1160.94	0.0892523
1170.58	0.093642
1180.22	0.0983865
1189.86	0.102944
1199.51	0.107937
1209.15	0.112604
1218.79	0.118351
1228.43	0.124341
1238.08	0.131065
1247.72	0.138768
1257.36	0.147262
1267	0.15648
1276.64	0.166855
1286.29	0.177865
1295.93	0.190226
1305.57	0.203949
1315.21	0.218891
1324.86	0.235198
1334.5	0.25276
1344.14	0.271961
1353.78	0.293189
1363.43	0.317256
1373.07	0.34439
1382.71	0.371595
1392.35	0.393792
1401.99	0.405403
1411.64	0.402463
1421.28	0.3799
1430.92	0.350197
1440.57	0.323195
1450.21	0.297803
1459.85	0.272197
1469.49	0.247738
1479.13	0.223938
1488.78	0.199765
1498.42	0.174545
1508.06	0.149489
1517.7	0.125048
1527.35	0.103049
1536.99	0.0831103
1546.63	0.0638547
1556.27	0.0426216
1565.91	0.0223927
1575.56	0.0158052
1585.2	0.0147112
1594.84	0.0142408
1604.48	0.013628
1614.13	0.011865
1623.77	0.010541
1633.41	0.00969276
1643.05	0.00882006
1652.7	0.0079684
1662.34	0.00773344
1671.98	0.00682179
1681.62	0.00628769
1691.27	0.00606904
1700.91	0.00552277
1710.55	0.00557076
1720.19	0.00508497
1729.84	0.00465476
1739.48	0.00452716
1749.12	0.00488522
1758.76	0.00596196
1768.4	0.00670772
1778.05	0.00747579
1787.69	0.0082391
1797.33	0.0101767
1806.97	0.012314
1816.62	0.0123786
1826.26	0.0109132
1835.9	0.00729681
1845.54	0.00628889
1855.18	0.0056756
1864.83	0.0052433
1874.47	0.00563298
1884.11	0.00505315
1893.75	0.00574105
1903.4	0.00598078
1913.04	0.00570821
1922.68	0.00540245
1932.32	0.00575236
1941.97	0.00615659
1951.61	0.00444621
1961.25	0.00531793
1970.89	0.0039513
1980.54	0.00728303
1990.18	0.00586765
1999.82	0.0066065
2009.46	0.00680832
2019.11	0.00572462
2028.75	0.00364267
2038.39	0.00819663
2048.03	0.0070293
2057.67	0.00825397
2067.32	0.00937858
2076.96	0.00912328
2086.6	0.00804312
2096.24	0.00717546
2105.89	0.00946299
2115.53	0.00891388
2125.17	0.0084149
2134.81	0.00722465
2144.45	0.0075961
2154.1	0.0040468
2163.74	0.0122292
2173.38	0.00854743
2183.02	0.00936159
2192.67	0.0100915
2202.31	0.00893866
2211.95	0.0110311
2221.59	0.00985241
2231.24	0.0100895
2240.88	0.0104411
2250.52	0.0102777
2260.16	0.0103538
2269.8	0.0113667
2279.45	0.0130631
2289.09	0.0127388
2298.73	0.0134956
2308.38	0.0138991
2318.02	0.0138487
2327.66	0.0142548
2337.3	0.0137809
2346.94	0.0135662
2356.59	0.0138873
2366.23	0.0131885
2375.87	0.0133354
2385.51	0.0132119
2395.16	0.0136619
2404.8	0.0125319
2414.44	0.0134675
2424.08	0.0142489
2433.72	0.0135992
2443.37	0.0145415
2453.01	0.0148168
2462.65	0.0139232
2472.29	0.0161527
2481.94	0.0167437
2491.58	0.0185466
2501.22	0.0198311
2510.86	0.0203168
2520.51	0.0200515
2530.15	0.0188228
2539.79	0.0167596
2549.43	0.0173084
2559.07	0.0166516
2568.72	0.0171491
2578.36	0.0161195
2588	0.0162262
2597.64	0.0158327
2607.29	0.0164253
2616.93	0.0162695
2626.57	0.0161794
2636.21	0.0156746
2645.86	0.0165449
2655.5	0.0156438
2665.14	0.0153178
2674.78	0.0151109
2684.43	0.014658
2694.07	0.0151173
2703.71	0.0150985
2713.35	0.0149114
2722.99	0.0150891
2732.64	0.0153213
2742.28	0.0154049
2751.92	0.0155739
2761.56	0.0162033
2771.21	0.0157234
2780.85	0.0153123
2790.49	0.0159439
2800.13	0.0157016
2809.78	0.0167946
2819.42	0.0151966
2829.06	0.0166631
2838.7	0.0169156
2848.34	0.0168834
2857.99	0.0164144
2867.63	0.0180474
2877.27	0.0186829
2886.91	0.0187498
2896.56	0.0172279
2906.2	0.017224
2915.84	0.0166471
2925.48	0.016257
2935.13	0.0174013
2944.77	0.0184258
2954.41	0.0179839
2964.05	0.0194851
2973.7	0.0195675
2983.34	0.019317
2992.98	0.0208731
3002.62	0.019723
3012.26	0.021912
3021.91	0.021977
3031.55	0.0210507
3041.19	0.0208552
3050.83	0.0208462
3060.48	0.0213278
3070.12	0.022272
3079.76	0.0224411
3089.4	0.023048
3099.05	0.023769
3108.69	0.024426
3118.33	0.0253583
3127.97	0.0245857
3137.61	0.02616
3147.26	0.0257715
3156.9	0.0265242
3166.54	0.0250311
3176.18	0.0261047
3185.83	0.0262803
3195.47	0.0266923
3205.11	0.0276571
3214.75	0.0271819
3224.4	0.0286351
3234.04	0.028739
3243.68	0.0279549
3253.32	0.028158
3262.97	0.0275845
3272.61	0.0275684
3282.25	0.0273725
3291.89	0.027601
3301.53	0.0299188
3311.18	0.0292517
3320.82	0.0287053
3330.46	0.0315994
3340.1	0.0311374
3349.75	0.0270101
3359.39	0.030059
3369.03	0.0306876
3378.67	0.031594
3388.32	0.0298694
3397.96	0.0294104
3407.6	0.0316199
3417.24	0.0312183
3426.89	0.0309675
3436.53	0.0311954
3446.17	0.0307989
3455.81	0.0327038
3465.45	0.0308282
3475.1	0.0296966
3484.74	0.0320143
3494.38	0.0283696
3504.02	0.0314719
3513.67	0.0314276
3523.31	0.031661
3532.95	0.0305563
3542.59	0.030287
3552.24	0.0297078
3561.88	0.0309582
3571.52	0.0301076
3581.16	0.0295378
3590.8	0.0307727
3600.45	0.0303672
3610.09	0.029006
3619.73	0.0296912
3629.37	0.030114
3639.02	0.0308788
3648.66	0.0305348
3658.3	0.0295444
3667.94	0.0318417
3677.59	0.0267433
3687.23	0.0294224
3696.87	0.031629
3706.51	0.0333293
3716.16	0.0307292
3725.8	0.0324295
3735.44	0.0341982
3745.08	0.0320156
3754.72	0.0303476
3764.37	0.0301249
3774.01	0.0338808
3783.65	0.0312377
3793.29	0.0319967
3802.94	0.032923
3812.58	0.0319177
3822.22	0.0319369
3831.86	0.0340738
3841.51	0.032046
3851.15	0.0320084
3860.79	0.0341493
3870.43	0.0317605
3880.07	0.0345682
3889.72	0.0345813
3899.36	0.0340421
3909	0.0334565
3918.64	0.0371638
3928.29	0.0319673
3937.93	0.0351467
3947.57	0.035745
3957.21	0.033214
3966.86	0.034038
3976.5	0.0342321
3986.14	0.0369545
3995.78	0.0347518
