Measurement: Infrared, Infrared Data Processed
Mineral: Sigloite
Rruff sample: R050576
Ideal chemistry: Fe^3+^Al_2_(PO_4_)_2_(OH)_3_7H_2_O
Locality: Viloco, Bolivia
Source: University of Arizona Mineral Museum
Description: Tan colored prismatic crystals
x	intensity
399.193	0.223817
408.835	0.21614
418.477	0.211796
428.12	0.222266
437.762	0.218917
447.404	0.205052
457.047	0.186746
466.689	0.181972
476.331	0.177824
485.974	0.180288
495.616	0.196004
505.258	0.209119
514.901	0.218427
524.543	0.223007
534.185	0.227153
543.828	0.234875
553.47	0.240783
563.112	0.237313
572.755	0.208956
582.397	0.188802
592.039	0.184617
601.682	0.188907
611.324	0.195444
620.966	0.200527
630.609	0.203582
640.251	0.201457
649.893	0.190574
659.536	0.171761
669.178	0.156763
678.82	0.144199
688.463	0.130198
698.105	0.117052
707.747	0.106891
717.39	0.0987835
727.032	0.0916831
736.674	0.0850002
746.317	0.0788056
755.959	0.0748037
765.601	0.0728926
775.244	0.0729082
784.886	0.0734027
794.528	0.0744473
804.171	0.0753411
813.813	0.076348
823.455	0.0771763
833.098	0.0782038
842.74	0.0800689
852.382	0.0830362
862.025	0.0878233
871.667	0.0946388
881.309	0.104563
890.952	0.115567
900.594	0.127531
910.236	0.141205
919.879	0.156411
929.521	0.169349
939.163	0.176666
948.806	0.186645
958.448	0.20768
968.09	0.243129
977.733	0.287181
987.375	0.329487
997.017	0.340519
1006.66	0.339114
1016.3	0.344933
1025.94	0.365412
1035.59	0.358009
1045.23	0.344174
1054.87	0.31255
1064.51	0.278657
1074.16	0.250012
1083.8	0.212824
1093.44	0.174444
1103.08	0.143599
1112.72	0.115285
1122.37	0.0904262
1132.01	0.0718793
1141.65	0.0616409
1151.3	0.0576908
1160.94	0.0543102
1170.58	0.0458156
1180.22	0.0390105
1189.86	0.034917
1199.51	0.0316965
1209.15	0.0290399
1218.79	0.0263383
1228.43	0.024094
1238.08	0.0224394
1247.72	0.0215975
1257.36	0.0210277
1267	0.0210475
1276.64	0.0213094
1286.29	0.0215544
1295.93	0.0214033
1305.57	0.0216066
1315.21	0.021287
1324.86	0.0214899
1334.5	0.0214703
1344.14	0.0217284
1353.78	0.0218299
1363.43	0.0219319
1373.07	0.0223508
1382.71	0.0229178
1392.35	0.0236036
1401.99	0.0245688
1411.64	0.0255021
1421.28	0.0259926
1430.92	0.0272192
1440.57	0.0280326
1450.21	0.0283047
1459.85	0.0280139
1469.49	0.0283113
1479.13	0.0290579
1488.78	0.0289142
1498.42	0.0298681
1508.06	0.0299933
1517.7	0.0325191
1527.35	0.0348077
1536.99	0.0364191
1546.63	0.0395717
1556.27	0.0408763
1565.91	0.0457451
1575.56	0.0469914
1585.2	0.0526683
1594.84	0.0563033
1604.48	0.0596278
1614.13	0.0613008
1623.77	0.061328
1633.41	0.0595521
1643.05	0.0564651
1652.7	0.0475093
1662.34	0.0463687
1671.98	0.0418712
1681.62	0.0372726
1691.27	0.0344822
1700.91	0.0284127
1710.55	0.0282945
1720.19	0.0256953
1729.84	0.0241993
1739.48	0.0221026
1749.12	0.0210656
1758.76	0.0219189
1768.4	0.0212554
1778.05	0.0219048
1787.69	0.0220065
1797.33	0.0213195
1806.97	0.0212132
1816.62	0.0208988
1826.26	0.0208692
1835.9	0.0204801
1845.54	0.0200117
1855.18	0.020186
1864.83	0.0200422
1874.47	0.0195563
1884.11	0.0194768
1893.75	0.0199112
1903.4	0.0192519
1913.04	0.0191917
1922.68	0.0182687
1932.32	0.0184621
1941.97	0.018094
1951.61	0.0172318
1961.25	0.0178006
1970.89	0.0155829
1980.54	0.0177063
1990.18	0.0153962
1999.82	0.0171064
2009.46	0.0173944
2019.11	0.0164341
2028.75	0.0167775
2038.39	0.0170919
2048.03	0.0162702
2057.67	0.0165801
2067.32	0.0161092
2076.96	0.0167259
2086.6	0.0169059
2096.24	0.0171455
2105.89	0.0175089
2115.53	0.0173263
2125.17	0.0170589
2134.81	0.015478
2144.45	0.0160383
2154.1	0.016729
2163.74	0.0196302
2173.38	0.0198952
2183.02	0.0204489
2192.67	0.0200103
2202.31	0.0218338
2211.95	0.0220123
2221.59	0.0221154
2231.24	0.0224359
2240.88	0.0246279
2250.52	0.0246803
2260.16	0.0242417
2269.8	0.0249097
2279.45	0.0259532
2289.09	0.0258993
2298.73	0.0256675
2308.38	0.0260293
2318.02	0.0274691
2327.66	0.0275909
2337.3	0.0273504
2346.94	0.0273318
2356.59	0.0275304
2366.23	0.0278349
2375.87	0.0272229
2385.51	0.0272469
2395.16	0.027419
2404.8	0.0276596
2414.44	0.0286988
2424.08	0.0290092
2433.72	0.0291925
2443.37	0.0299087
2453.01	0.0303202
2462.65	0.0306391
2472.29	0.0305485
2481.94	0.0312325
2491.58	0.0313167
2501.22	0.0316808
2510.86	0.0322036
2520.51	0.0328395
2530.15	0.0335892
2539.79	0.033414
2549.43	0.0343005
2559.07	0.0341946
2568.72	0.0351738
2578.36	0.0355695
2588	0.0363711
2597.64	0.037122
2607.29	0.0379536
2616.93	0.0389264
2626.57	0.0400901
2636.21	0.0405779
2645.86	0.0419696
2655.5	0.0423731
2665.14	0.0427609
2674.78	0.0439927
2684.43	0.0452417
2694.07	0.0462644
2703.71	0.047759
2713.35	0.0489577
2722.99	0.0503797
2732.64	0.0519433
2742.28	0.0534886
2751.92	0.0549407
2761.56	0.0561126
2771.21	0.0582114
2780.85	0.059596
2790.49	0.0617955
2800.13	0.063862
2809.78	0.0657929
2819.42	0.0680507
2829.06	0.0706407
2838.7	0.0728185
2848.34	0.0742606
2857.99	0.0776706
2867.63	0.080275
2877.27	0.0827119
2886.91	0.085988
2896.56	0.089484
2906.2	0.0930578
2915.84	0.0952732
2925.48	0.099248
2935.13	0.102633
2944.77	0.106665
2954.41	0.11064
2964.05	0.114125
2973.7	0.117792
2983.34	0.121766
2992.98	0.126285
3002.62	0.130258
3012.26	0.135241
3021.91	0.138967
3031.55	0.143309
3041.19	0.147126
3050.83	0.150368
3060.48	0.153669
3070.12	0.15624
3079.76	0.158827
3089.4	0.16115
3099.05	0.162732
3108.69	0.162986
3118.33	0.16311
3127.97	0.161584
3137.61	0.160372
3147.26	0.157438
3156.9	0.154506
3166.54	0.151003
3176.18	0.1472
3185.83	0.143612
3195.47	0.140311
3205.11	0.137509
3214.75	0.135954
3224.4	0.133485
3234.04	0.131973
3243.68	0.131016
3253.32	0.128657
3262.97	0.127688
3272.61	0.126771
3282.25	0.124508
3291.89	0.125218
3301.53	0.122675
3311.18	0.121768
3320.82	0.120049
3330.46	0.11867
3340.1	0.117938
3349.75	0.116957
3359.39	0.117535
3369.03	0.118043
3378.67	0.119867
3388.32	0.122751
3397.96	0.128348
3407.6	0.133076
3417.24	0.13657
3426.89	0.139008
3436.53	0.14171
3446.17	0.139312
3455.81	0.134137
3465.45	0.125552
3475.1	0.11739
3484.74	0.113364
3494.38	0.102694
3504.02	0.0880864
3513.67	0.0784612
3523.31	0.0723316
3532.95	0.0698658
3542.59	0.0686856
3552.24	0.0627359
3561.88	0.0542165
3571.52	0.0431601
3581.16	0.0355517
3590.8	0.0299799
3600.45	0.0318211
3610.09	0.0377457
3619.73	0.0218653
3629.37	0.00837948
3639.02	0.0066943
3648.66	-0.000159201
3658.3	0.000986147
3667.94	-0.000518542
3677.59	-0.00266033
3687.23	-0.00470963
3696.87	-0.0017354
3706.51	-0.00112811
3716.16	-0.00220566
3725.8	-0.00330431
3735.44	-0.00514154
3745.08	-0.00865587
3754.72	-0.00350498
3764.37	-0.00295624
3774.01	-0.00234489
3783.65	-0.00202125
3793.29	-0.00224705
3802.94	-0.00437029
3812.58	-0.00244058
3822.22	-0.0043906
3831.86	-0.00395202
3841.51	-0.00347182
3851.15	-0.00708378
3860.79	-0.0025257
3870.43	-0.00506204
3880.07	-0.00397056
3889.72	-0.00262384
3899.36	-0.00373241
3909	-0.00192341
3918.64	-0.00142516
3928.29	-0.00121398
3937.93	-0.00140617
3947.57	-0.00146555
3957.21	-0.00136366
3966.86	-0.00127687
3976.5	-0.00128599
3986.14	-0.000582139
3995.78	-0.00160456
