Measurement: Infrared, Infrared Data Processed
Mineral: Silicon
Rruff sample: R050145
Ideal chemistry: Si
Locality: synthetic from Dupont
Source: Gerry Gibbs
Description: Dark gray synthetic fragment
Measured chemistry: Si
x	intensity
374.123	0.00136891
383.765	-0.0131115
393.407	-8.0753e-06
403.05	-0.00886396
412.692	-0.00799388
422.334	-0.00276095
431.976	-0.00033182
441.619	0.000667866
451.261	0.000197505
460.904	0.00122425
470.546	0.00103097
480.188	-0.00148109
489.83	0.00074752
499.473	-0.000344417
509.115	-2.66116e-05
518.758	-0.000267014
528.4	-0.00040304
538.042	0.00165582
547.684	0.00152314
557.327	0.000901859
566.969	-5.35762e-07
576.611	-0.000625303
586.254	-0.00063129
595.896	-0.000274186
605.538	-0.000971425
615.181	-0.000313123
624.823	-0.000209946
634.466	-0.000831225
644.108	2.0594e-06
653.75	7.01542e-05
663.393	-0.00049228
673.035	-0.00083909
682.677	-0.000752804
692.319	0.000142124
701.962	-0.000960424
711.604	-0.000573623
721.246	-0.000902188
730.889	-0.000837978
740.531	-0.000913181
750.173	-0.00105817
759.816	-0.000808647
769.458	-0.000346909
779.101	-0.000759283
788.743	-0.000430267
798.385	-0.000520371
808.028	-0.000551095
817.67	-0.00047061
827.312	-0.000672346
836.955	-0.000317405
846.597	-9.26049e-05
856.239	0.00194949
865.881	-0.000933102
875.524	-0.000328887
885.166	-0.000895805
894.808	-0.000296295
904.451	-0.000202089
914.093	0.000185807
923.736	0.000674833
933.378	0.000734993
943.02	0.00128488
952.663	0.00174241
962.305	0.0021292
971.947	0.00311711
981.59	0.00343213
991.232	0.00411268
1000.87	0.00495367
1010.52	0.00594884
1020.16	0.00621648
1029.8	0.00638628
1039.44	0.00656313
1049.09	0.00646756
1058.73	0.00635122
1068.37	0.0058439
1078.01	0.00545176
1087.65	0.00553181
1097.3	0.00578094
1106.94	0.00569866
1116.58	0.0058746
1126.22	0.00593447
1135.87	0.00661867
1145.51	0.00701394
1155.15	0.00617691
1164.79	0.00566035
1174.44	0.0049026
1184.08	0.00501838
1193.72	0.00521029
1203.36	0.00516762
1213.01	0.00480293
1222.65	0.00444116
1232.29	0.00308608
1241.93	0.000990433
1251.58	-2.41623e-05
1261.22	-9.15115e-05
1270.86	0.000349319
1280.5	0.000944466
1290.14	0.00157124
1299.79	0.00200783
1309.43	0.00240832
1319.07	0.0028613
1328.71	0.0030376
1338.36	0.00330137
1348	0.00395696
1357.64	0.00441486
1367.28	0.00467836
1376.92	0.00508065
1386.57	0.00508692
1396.21	0.00617316
1405.85	0.00758732
1415.49	0.00985048
1425.14	0.0122422
1434.78	0.0132794
1444.42	0.013739
1454.06	0.0112287
1463.71	0.00818833
1473.35	0.00399152
1482.99	0.00348816
1492.63	0.00190105
1502.28	0.000827631
1511.92	-0.000170946
1521.56	-0.00212251
1531.2	0.000424408
1540.85	-0.00275845
1550.49	0.000824862
1560.13	-0.00330418
1569.77	-0.000511168
1579.41	0.000276338
1589.06	-3.27922e-05
1598.7	-0.000267353
1608.34	-0.000483961
1617.98	-0.00175064
1627.63	-0.000823153
1637.27	-0.00203074
1646.91	-0.00283023
1656.55	-0.00109391
1666.19	-0.000724599
1675.84	-0.00159008
1685.48	-0.00387562
1695.12	-0.00322855
1704.77	-0.00126225
1714.41	-0.00119535
1724.05	-1.83197e-06
1733.69	-0.00281559
1743.33	-0.00105397
1752.98	-0.00185491
1762.62	-0.00194681
1772.26	-0.002668
1781.9	-0.00131151
1791.55	-0.00270857
1801.19	-0.00190344
1810.83	-0.00168649
1820.47	-0.00242983
1830.12	-0.00257874
1839.76	-0.00169663
1849.4	-0.00257613
1859.04	-0.00202186
1868.68	-0.0035328
1878.33	-0.00322802
1887.97	-0.00328525
1897.61	-0.00300832
1907.25	-0.00310632
1916.9	-0.00418768
1926.54	-0.00322997
1936.18	-0.00381175
1945.82	-0.00328248
1955.46	-0.00334371
1965.11	-0.00476569
1974.75	-0.00260642
1984.39	-0.00338913
1994.04	-0.00181402
2003.68	-0.00377116
2013.32	-0.00251551
2022.96	-0.00218405
2032.6	-0.0030671
2042.25	-0.00360902
2051.89	-0.00260516
2061.53	-0.00393179
2071.17	-0.00164672
2080.82	-0.00162399
2090.46	-0.00300211
2100.1	-0.00239812
2109.74	-0.00200914
2119.39	-0.00362773
2129.03	-0.00207054
2138.67	-0.00202436
2148.31	-0.00363477
2157.95	-0.00242706
2167.6	-1.4632e-05
2177.24	-0.00191299
2186.88	-0.00278138
2196.52	-0.00133872
2206.17	-0.0011077
2215.81	0.000270997
2225.45	-0.00226889
2235.09	-0.000566743
2244.74	0.00104735
2254.38	-0.000676708
2264.02	-0.000682133
2273.66	0.000294866
2283.3	-5.17133e-05
2292.95	0.000542349
2302.59	0.000629745
2312.23	0.000542495
2321.87	0.00172257
2331.52	0.000513438
2341.16	0.000568963
2350.8	0.000568893
2360.44	0.000454534
2370.09	0.000316355
2379.73	-0.000453256
2389.37	0.000556817
2399.01	-0.000597992
2408.66	0.000143058
2418.3	-0.000450621
2427.94	-0.000664553
2437.58	-0.000119479
2447.22	-0.00014152
2456.87	-0.000390984
2466.51	0.000167499
2476.15	-0.00031619
2485.79	-0.000409546
2495.44	0.000609991
2505.08	-0.000161164
2514.72	0.00025846
2524.36	0.000166715
2534.01	-0.000273721
2543.65	-7.15365e-05
2553.29	0.000562594
2562.93	0.00112492
2572.57	0.000893244
2582.22	0.00163571
2591.86	0.00191537
2601.5	0.0015153
2611.14	0.00255895
2620.79	0.00285233
2630.43	0.00344368
2640.07	0.00404872
2649.71	0.00388712
2659.36	0.00393796
2669	0.0036051
2678.64	0.00336548
2688.28	0.00407953
2697.93	0.00338455
2707.57	0.00321974
2717.21	0.00372705
2726.85	0.00335343
2736.49	0.00357169
2746.14	0.00382175
2755.78	0.0032221
2765.42	0.00343788
2775.06	0.00398888
2784.71	0.00372599
2794.35	0.00353261
2803.99	0.00310286
2813.63	0.00302854
2823.28	0.00358772
2832.92	0.00381468
2842.56	0.00327659
2852.2	0.00335515
2861.84	0.00271353
2871.49	0.00300891
2881.13	0.00252953
2890.77	0.0020049
2900.41	0.00274074
2910.06	0.00217114
2919.7	0.00236117
2929.34	0.00138865
2938.98	0.000866872
2948.62	0.00199124
2958.27	0.000834914
2967.91	0.00145186
2977.55	0.000259705
2987.2	0.000356565
2996.84	-6.98758e-05
3006.48	0.000465955
3016.12	0.000402508
3025.76	0.000299238
3035.41	0.000191129
3045.05	-8.19911e-06
3054.69	0.000500527
3064.33	0.000435397
3073.98	0.000395221
3083.62	0.000545264
3093.26	-0.000457891
3102.9	1.91863e-05
3112.55	-0.000208545
3122.19	0.00030984
3131.83	-0.000821881
3141.47	0.000347433
3151.11	0.000531488
3160.76	0.000480886
3170.4	0.000131588
3180.04	0.00020873
3189.68	0.000946405
3199.33	0.000628467
3208.97	0.000812627
3218.61	0.00114841
3228.25	0.00023083
3237.9	0.00019087
3247.54	0.000314502
3257.18	-0.000293519
3266.82	0.000239288
3276.47	-0.000723025
3286.11	-0.00035618
3295.75	8.02903e-05
3305.39	0.000218773
3315.03	-0.00106203
3324.68	0.000303122
3334.32	0.000179912
3343.96	0.00102963
3353.6	0.000740708
3363.25	-0.000193045
3372.89	-0.000219271
3382.53	0.000462533
3392.17	0.000530284
3401.82	0.000820097
3411.46	4.02515e-05
3421.1	0.00139419
3430.74	0.000710445
3440.39	0.00064183
3450.03	0.000283404
3459.67	0.000668958
3469.31	0.0015841
3478.95	0.000161887
3488.6	0.00200629
3498.24	0.000994843
3507.88	0.000424012
3517.52	0.000893488
3527.17	0.00129444
3536.81	0.00126074
3546.45	0.00167803
3556.09	0.000622126
3565.74	0.00195643
3575.38	-0.000289819
3585.02	0.00179527
3594.66	0.002778
3604.3	0.000660154
3613.95	0.000881098
3623.59	0.00140695
3633.23	0.00171168
3642.87	0.0021326
3652.52	0.000905138
3662.16	0.00179282
3671.8	0.000511802
3681.44	0.00442123
3691.09	0.00375583
3700.73	0.00165646
3710.37	0.0020815
3720.01	0.00221372
3729.66	0.00312633
3739.3	0.00355053
3748.94	0.00279604
3758.58	0.00333286
3768.22	0.00432725
3777.87	0.0027737
3787.51	0.00285301
3797.15	0.00243108
3806.79	0.0032755
3816.44	0.00109522
3826.08	0.00218657
3835.72	0.000468965
3845.36	0.00375087
3855.01	0.00053093
3864.65	0.00209113
3874.29	0.00258245
3883.93	0.00332125
3893.57	0.00369073
3903.22	0.00121794
3912.86	-7.7126e-05
3922.5	0.00186044
3932.14	0.000996365
3941.79	0.000930352
3951.43	0.00175209
3961.07	0.000711965
3970.71	0.000600985
3980.36	0.00251715
3990	3.42519e-05
3999.64	-0.000972592
