Measurement: Infrared, Infrared Data Processed
Mineral: Sillimanite
Rruff sample: R060080
Ideal chemistry: Al_2_OSiO_4_
Locality: Pein Pyit, Mogok, Burma
Source: Marcus Origlieri
Description: Light tan colored water-worn pebble
Measured chemistry: (Al_1.99_Fe^3+^_0.01_)_Î£=2_Si_1.00_O_5_
x	intensity
399.193	0.310115
408.835	0.355259
418.477	0.374297
428.12	0.381383
437.762	0.340921
447.404	0.287424
457.047	0.247128
466.689	0.225625
476.331	0.243391
485.974	0.27703
495.616	0.241944
505.258	0.269218
514.901	0.20795
524.543	0.195914
534.185	0.173009
543.828	0.17364
553.47	0.113437
563.112	0.154483
572.755	0.180315
582.397	0.191344
592.039	0.195635
601.682	0.191216
611.324	0.164578
620.966	0.140124
630.609	0.133496
640.251	0.0992948
649.893	0.0506876
659.536	0.0472828
669.178	0.078996
678.82	0.150989
688.463	0.232912
698.105	0.215791
707.747	0.183947
717.39	0.161397
727.032	0.159041
736.674	0.168971
746.317	0.164755
755.959	0.138481
765.601	0.101106
775.244	0.0977665
784.886	0.125512
794.528	0.176933
804.171	0.261192
813.813	0.308675
823.455	0.237033
833.098	0.169964
842.74	0.12577
852.382	0.0884045
862.025	0.0876625
871.667	0.150906
881.309	0.271542
890.952	0.29766
900.594	0.285203
910.236	0.244614
919.879	0.200663
929.521	0.181003
939.163	0.175967
948.806	0.199338
958.448	0.203725
968.09	0.134351
977.733	0.100952
987.375	0.082058
997.017	0.0650864
1006.66	0.0495928
1016.3	0.0356279
1025.94	0.0252522
1035.59	0.0197602
1045.23	0.0177961
1054.87	0.0170212
1064.51	0.0168816
1074.16	0.0173801
1083.8	0.0186396
1093.44	0.0207377
1103.08	0.0248205
1112.72	0.0296604
1122.37	0.0359956
1132.01	0.0481887
1141.65	0.0672822
1151.3	0.101615
1160.94	0.170385
1170.58	0.273407
1180.22	0.250806
1189.86	0.158865
1199.51	0.108565
1209.15	0.0775261
1218.79	0.04658
1228.43	0.0222182
1238.08	0.0126178
1247.72	0.009277
1257.36	0.00743014
1267	0.00640297
1276.64	0.0062704
1286.29	0.0054587
1295.93	0.00506956
1305.57	0.00483584
1315.21	0.00479807
1324.86	0.00445957
1334.5	0.00429924
1344.14	0.00404622
1353.78	0.00397792
1363.43	0.00359664
1373.07	0.00368016
1382.71	0.00396924
1392.35	0.00416538
1401.99	0.0044231
1411.64	0.00440673
1421.28	0.00420242
1430.92	0.00451641
1440.57	0.00442997
1450.21	0.00442125
1459.85	0.00401249
1469.49	0.00418733
1479.13	0.00461581
1488.78	0.00438481
1498.42	0.00433203
1508.06	0.00349278
1517.7	0.00421291
1527.35	0.00466121
1536.99	0.00438161
1546.63	0.00499633
1556.27	0.00429521
1565.91	0.00563831
1575.56	0.00447559
1585.2	0.00608356
1594.84	0.00603314
1604.48	0.00614089
1614.13	0.00575588
1623.77	0.00549908
1633.41	0.00547032
1643.05	0.0059215
1652.7	0.00290594
1662.34	0.00586105
1671.98	0.00604575
1681.62	0.0062887
1691.27	0.00666001
1700.91	0.00473994
1710.55	0.00685527
1720.19	0.00655016
1729.84	0.00688281
1739.48	0.00551753
1749.12	0.00517428
1758.76	0.00612958
1768.4	0.0063007
1778.05	0.00713005
1787.69	0.00755818
1797.33	0.0075868
1806.97	0.00743146
1816.62	0.00683104
1826.26	0.00668097
1835.9	0.00644638
1845.54	0.00618765
1855.18	0.00688493
1864.83	0.00673067
1874.47	0.00608593
1884.11	0.0065144
1893.75	0.00580901
1903.4	0.00573678
1913.04	0.00583229
1922.68	0.00566488
1932.32	0.0059486
1941.97	0.00518262
1951.61	0.00438531
1961.25	0.00614355
1970.89	0.00492589
1980.54	0.00801689
1990.18	0.00678888
1999.82	0.00686652
2009.46	0.00715461
2019.11	0.0067914
2028.75	0.0080891
2038.39	0.0105215
2048.03	0.0107929
2057.67	0.0102947
2067.32	0.0104553
2076.96	0.0108703
2086.6	0.0103916
2096.24	0.0102117
2105.89	0.0102703
2115.53	0.0106516
2125.17	0.00849603
2134.81	0.00723007
2144.45	0.00838956
2154.1	0.00683714
2163.74	0.0136986
2173.38	0.0104272
2183.02	0.0118795
2192.67	0.0119929
2202.31	0.0113112
2211.95	0.0119694
2221.59	0.0116655
2231.24	0.0113604
2240.88	0.0122145
2250.52	0.0119472
2260.16	0.0125039
2269.8	0.0126011
2279.45	0.0127885
2289.09	0.0128104
2298.73	0.0122141
2308.38	0.0120754
2318.02	0.0126541
2327.66	0.0113655
2337.3	0.0103304
2346.94	0.00995046
2356.59	0.0101163
2366.23	0.00969572
2375.87	0.00997278
2385.51	0.00996066
2395.16	0.0105918
2404.8	0.0102688
2414.44	0.0111729
2424.08	0.0115844
2433.72	0.0118375
2443.37	0.0127464
2453.01	0.0131512
2462.65	0.0131467
2472.29	0.0130496
2481.94	0.0135115
2491.58	0.0133188
2501.22	0.0134126
2510.86	0.0136439
2520.51	0.0134456
2530.15	0.0137317
2539.79	0.0131299
2549.43	0.0138622
2559.07	0.0139825
2568.72	0.0142164
2578.36	0.0143954
2588	0.0147805
2597.64	0.0144721
2607.29	0.0151704
2616.93	0.0151623
2626.57	0.0153183
2636.21	0.0154117
2645.86	0.0154921
2655.5	0.0154162
2665.14	0.0144842
2674.78	0.0150306
2684.43	0.0150062
2694.07	0.014877
2703.71	0.0151171
2713.35	0.015238
2722.99	0.0150208
2732.64	0.015115
2742.28	0.0151657
2751.92	0.0154288
2761.56	0.0153324
2771.21	0.0153721
2780.85	0.0155326
2790.49	0.0156556
2800.13	0.0155628
2809.78	0.0155798
2819.42	0.0156007
2829.06	0.015617
2838.7	0.0155368
2848.34	0.0125749
2857.99	0.0136778
2867.63	0.0147244
2877.27	0.0151269
2886.91	0.014977
2896.56	0.0141372
2906.2	0.0141415
2915.84	0.0111159
2925.48	0.0118888
2935.13	0.0133498
2944.77	0.0141691
2954.41	0.015057
2964.05	0.0154636
2973.7	0.0158246
2983.34	0.0163529
2992.98	0.0163555
3002.62	0.0161362
3012.26	0.0168332
3021.91	0.0164993
3031.55	0.0163153
3041.19	0.0167002
3050.83	0.0166687
3060.48	0.0172471
3070.12	0.0174349
3079.76	0.0172452
3089.4	0.0176748
3099.05	0.017831
3108.69	0.017673
3118.33	0.018046
3127.97	0.0179765
3137.61	0.0181245
3147.26	0.0183801
3156.9	0.0187403
3166.54	0.0185055
3176.18	0.0187102
3185.83	0.0196183
3195.47	0.0179884
3205.11	0.0185135
3214.75	0.0181882
3224.4	0.018554
3234.04	0.0193453
3243.68	0.0189389
3253.32	0.018945
3262.97	0.0190751
3272.61	0.0194325
3282.25	0.0191604
3291.89	0.0191593
3301.53	0.0194005
3311.18	0.0197979
3320.82	0.0191772
3330.46	0.0188981
3340.1	0.019311
3349.75	0.0193173
3359.39	0.019823
3369.03	0.0194017
3378.67	0.0195228
3388.32	0.0191819
3397.96	0.0197123
3407.6	0.019848
3417.24	0.0193395
3426.89	0.0197108
3436.53	0.0191943
3446.17	0.019331
3455.81	0.0196289
3465.45	0.0197116
3475.1	0.0194345
3484.74	0.0195336
3494.38	0.0189482
3504.02	0.0194992
3513.67	0.0194262
3523.31	0.0193488
3532.95	0.0195983
3542.59	0.0195131
3552.24	0.0197108
3561.88	0.0197229
3571.52	0.0198505
3581.16	0.0186952
3590.8	0.019407
3600.45	0.0195158
3610.09	0.0174138
3619.73	0.0180751
3629.37	0.0175918
3639.02	0.0199835
3648.66	0.0165948
3658.3	0.0184652
3667.94	0.0189457
3677.59	0.0182683
3687.23	0.0169977
3696.87	0.0194917
3706.51	0.0188055
3716.16	0.019549
3725.8	0.0187356
3735.44	0.0172334
3745.08	0.0155523
3754.72	0.0194017
3764.37	0.0198706
3774.01	0.0203068
3783.65	0.020739
3793.29	0.0206041
3802.94	0.0182596
3812.58	0.0202834
3822.22	0.018255
3831.86	0.0189763
3841.51	0.0196521
3851.15	0.016653
3860.79	0.019124
3870.43	0.0177132
3880.07	0.0193239
3889.72	0.0188366
3899.36	0.0189984
3909	0.0203214
3918.64	0.0198048
3928.29	0.0197413
3937.93	0.0194339
3947.57	0.0198094
3957.21	0.021198
3966.86	0.0209411
3976.5	0.020963
3986.14	0.0212867
3995.78	0.0209841
