Measurement: Infrared, Infrared Data Processed
Mineral: Simpsonite
Rruff sample: R050629
Ideal chemistry: Al_4_Ta^5+^_3_O_13_(OH)
Locality: Equador, Rio Grande do Norte, Brazil
Source: Gemological Center
Description: Yellow fragment
Measured chemistry: Al_4.00_(Ta_2.93_Nb_0.07_)_Î£=3_O_13_(OH)
x	intensity
399.193	0.128485
408.835	0.125764
418.477	0.131171
428.12	0.135531
437.762	0.129184
447.404	0.112633
457.047	0.0850785
466.689	0.0973624
476.331	0.109769
485.974	0.107886
495.616	0.114154
505.258	0.103911
514.901	0.0906644
524.543	0.106091
534.185	0.093092
543.828	0.0944752
553.47	0.104719
563.112	0.113645
572.755	0.0944057
582.397	0.103167
592.039	0.0983763
601.682	0.0895511
611.324	0.0791653
620.966	0.0873346
630.609	0.105918
640.251	0.122306
649.893	0.12699
659.536	0.11722
669.178	0.105808
678.82	0.0962924
688.463	0.0888313
698.105	0.0809388
707.747	0.0730538
717.39	0.0650962
727.032	0.0563479
736.674	0.0474349
746.317	0.0382685
755.959	0.0308939
765.601	0.0385157
775.244	0.0647172
784.886	0.0656786
794.528	0.0546905
804.171	0.052307
813.813	0.0503398
823.455	0.039929
833.098	0.0304496
842.74	0.0250536
852.382	0.0209253
862.025	0.0187393
871.667	0.0181757
881.309	0.0211501
890.952	0.0353508
900.594	0.0628823
910.236	0.0677261
919.879	0.0497675
929.521	0.0337732
939.163	0.0208914
948.806	0.0120823
958.448	0.00869413
968.09	0.00720866
977.733	0.00744221
987.375	0.00679266
997.017	0.00727255
1006.66	0.00829496
1016.3	0.00906463
1025.94	0.00880232
1035.59	0.00986371
1045.23	0.00900063
1054.87	0.00839652
1064.51	0.00734771
1074.16	0.00664022
1083.8	0.00566136
1093.44	0.005157
1103.08	0.00493308
1112.72	0.00419955
1122.37	0.00350765
1132.01	0.0033638
1141.65	0.00281999
1151.3	0.00204749
1160.94	0.0016141
1170.58	0.00155802
1180.22	0.00169191
1189.86	0.00126615
1199.51	0.00180039
1209.15	0.00172695
1218.79	0.00137713
1228.43	0.00154688
1238.08	0.00131601
1247.72	0.00141819
1257.36	0.00148838
1267	0.00198878
1276.64	0.00227263
1286.29	0.00213836
1295.93	0.00247315
1305.57	0.0026902
1315.21	0.0030226
1324.86	0.00301348
1334.5	0.00340561
1344.14	0.00322955
1353.78	0.00343493
1363.43	0.00358878
1373.07	0.00343266
1382.71	0.00352505
1392.35	0.00447307
1401.99	0.00452647
1411.64	0.00507456
1421.28	0.00463575
1430.92	0.00503174
1440.57	0.00470702
1450.21	0.00467385
1459.85	0.00428417
1469.49	0.00449863
1479.13	0.00635728
1488.78	0.00674945
1498.42	0.00676677
1508.06	0.00699812
1517.7	0.00753298
1527.35	0.00765767
1536.99	0.00806674
1546.63	0.00822037
1556.27	0.0082606
1565.91	0.00823347
1575.56	0.00849324
1585.2	0.00870632
1594.84	0.00824272
1604.48	0.00871539
1614.13	0.00882295
1623.77	0.00908016
1633.41	0.00862995
1643.05	0.00972528
1652.7	0.00947038
1662.34	0.00983283
1671.98	0.0098176
1681.62	0.0101047
1691.27	0.010106
1700.91	0.00977503
1710.55	0.00886564
1720.19	0.00911504
1729.84	0.00827119
1739.48	0.00679514
1749.12	0.00738446
1758.76	0.010311
1768.4	0.011789
1778.05	0.0122781
1787.69	0.0121089
1797.33	0.0123807
1806.97	0.013702
1816.62	0.0127426
1826.26	0.0124571
1835.9	0.0119107
1845.54	0.0132491
1855.18	0.0136161
1864.83	0.0131567
1874.47	0.0134899
1884.11	0.0133907
1893.75	0.0150294
1903.4	0.0130724
1913.04	0.0145274
1922.68	0.0149421
1932.32	0.0144161
1941.97	0.0128974
1951.61	0.0161332
1961.25	0.0173955
1970.89	0.0198764
1980.54	0.0186331
1990.18	0.0169769
1999.82	0.0163188
2009.46	0.0160924
2019.11	0.0166897
2028.75	0.0183093
2038.39	0.0171284
2048.03	0.017308
2057.67	0.0181067
2067.32	0.0184788
2076.96	0.0191015
2086.6	0.0173345
2096.24	0.0179543
2105.89	0.0185269
2115.53	0.0180632
2125.17	0.0185995
2134.81	0.0174074
2144.45	0.0187144
2154.1	0.0148611
2163.74	0.0164945
2173.38	0.0195805
2183.02	0.021053
2192.67	0.0206885
2202.31	0.0215575
2211.95	0.0237673
2221.59	0.0196595
2231.24	0.0186761
2240.88	0.0205468
2250.52	0.0222633
2260.16	0.0223926
2269.8	0.0210387
2279.45	0.0223279
2289.09	0.023277
2298.73	0.0220536
2308.38	0.0227946
2318.02	0.0225086
2327.66	0.0224456
2337.3	0.0218839
2346.94	0.0212927
2356.59	0.0221347
2366.23	0.0223589
2375.87	0.0216539
2385.51	0.0219467
2395.16	0.0218177
2404.8	0.0226491
2414.44	0.0233964
2424.08	0.0231694
2433.72	0.02413
2443.37	0.0230905
2453.01	0.0234331
2462.65	0.0244753
2472.29	0.022626
2481.94	0.0246951
2491.58	0.0230269
2501.22	0.0215256
2510.86	0.0224182
2520.51	0.0240851
2530.15	0.0244463
2539.79	0.0241615
2549.43	0.0244089
2559.07	0.0248534
2568.72	0.0248077
2578.36	0.0242344
2588	0.0237983
2597.64	0.0248844
2607.29	0.0250295
2616.93	0.0257056
2626.57	0.0252464
2636.21	0.0248002
2645.86	0.0259967
2655.5	0.0254454
2665.14	0.0250187
2674.78	0.0261069
2684.43	0.0256453
2694.07	0.0251907
2703.71	0.0243579
2713.35	0.0264388
2722.99	0.0251275
2732.64	0.0255294
2742.28	0.0248345
2751.92	0.0250858
2761.56	0.0264928
2771.21	0.0265178
2780.85	0.0274087
2790.49	0.0252713
2800.13	0.0272301
2809.78	0.0285032
2819.42	0.0257729
2829.06	0.0271076
2838.7	0.0272713
2848.34	0.0274703
2857.99	0.0289611
2867.63	0.0258115
2877.27	0.0267553
2886.91	0.0273145
2896.56	0.0264795
2906.2	0.025722
2915.84	0.0289166
2925.48	0.0303518
2935.13	0.0298664
2944.77	0.0288632
2954.41	0.0280215
2964.05	0.0308769
2973.7	0.029274
2983.34	0.0310719
2992.98	0.0302283
3002.62	0.0302275
3012.26	0.0295721
3021.91	0.0317468
3031.55	0.0293201
3041.19	0.0303932
3050.83	0.0287885
3060.48	0.0293648
3070.12	0.0293342
3079.76	0.0291611
3089.4	0.0305383
3099.05	0.0312938
3108.69	0.0307714
3118.33	0.0305911
3127.97	0.0315121
3137.61	0.0315019
3147.26	0.0310004
3156.9	0.0317255
3166.54	0.0317121
3176.18	0.0302722
3185.83	0.030716
3195.47	0.0313686
3205.11	0.032658
3214.75	0.0310753
3224.4	0.0321951
3234.04	0.0340317
3243.68	0.031645
3253.32	0.0357482
3262.97	0.0365491
3272.61	0.0340466
3282.25	0.0365858
3291.89	0.0379617
3301.53	0.0383379
3311.18	0.0417294
3320.82	0.0461701
3330.46	0.0572044
3340.1	0.0429204
3349.75	0.025996
3359.39	0.0254011
3369.03	0.0263854
3378.67	0.0273991
3388.32	0.0274298
3397.96	0.0258995
3407.6	0.0295451
3417.24	0.0259419
3426.89	0.0289756
3436.53	0.0285767
3446.17	0.0297572
3455.81	0.0263682
3465.45	0.0259916
3475.1	0.0261664
3484.74	0.0262214
3494.38	0.0336734
3504.02	0.0322148
3513.67	0.0321598
3523.31	0.0261336
3532.95	0.0318506
3542.59	0.0268667
3552.24	0.0297017
3561.88	0.0329087
3571.52	0.0322447
3581.16	0.0324569
3590.8	0.0297937
3600.45	0.0276792
3610.09	0.0296771
3619.73	0.0312381
3629.37	0.0325142
3639.02	0.0332436
3648.66	0.0327265
3658.3	0.0301209
3667.94	0.031566
3677.59	0.0319226
3687.23	0.031693
3696.87	0.0337418
3706.51	0.0332309
3716.16	0.0352594
3725.8	0.0338714
3735.44	0.0308052
3745.08	0.0310947
3754.72	0.0313824
3764.37	0.0326811
3774.01	0.03069
3783.65	0.0338152
3793.29	0.0355159
3802.94	0.0340322
3812.58	0.0364817
3822.22	0.0362464
3831.86	0.0356477
3841.51	0.033432
3851.15	0.0342805
3860.79	0.0339727
3870.43	0.0323894
3880.07	0.0324853
3889.72	0.0331859
3899.36	0.0361234
3909	0.0338702
3918.64	0.0354193
3928.29	0.0388508
3937.93	0.0410042
3947.57	0.0372255
3957.21	0.031245
3966.86	0.0342768
3976.5	0.0390168
3986.14	0.0318327
3995.78	0.0310153
