Measurement: Infrared, Infrared Data Processed
Mineral: Sklodowskite
Rruff sample: R050445
Ideal chemistry: Mg(U^6+^O_2_)_2_(SiO_3_OH)_2_6H_2_O
Locality: Mina las Animas, Santa Eulalia, Chihuahua, Mexico
Source: Peter Megaw
Description: Mass of transparent yellow flat fibers
x	intensity
399.193	0.122384
408.835	0.117897
418.477	0.119143
428.12	0.116548
437.762	0.127391
447.404	0.120362
457.047	0.111544
466.689	0.113695
476.331	0.118836
485.974	0.127084
495.616	0.128475
505.258	0.120425
514.901	0.115417
524.543	0.118057
534.185	0.124612
543.828	0.132631
553.47	0.1394
563.112	0.142863
572.755	0.137954
582.397	0.123219
592.039	0.109329
601.682	0.103287
611.324	0.100048
620.966	0.0972213
630.609	0.0948152
640.251	0.093792
649.893	0.0945566
659.536	0.0967423
669.178	0.10064
678.82	0.102832
688.463	0.104908
698.105	0.105338
707.747	0.103886
717.39	0.10337
727.032	0.109328
736.674	0.112069
746.317	0.125734
755.959	0.139318
765.601	0.140277
775.244	0.136677
784.886	0.154909
794.528	0.168235
804.171	0.169033
813.813	0.216864
823.455	0.264004
833.098	0.264664
842.74	0.284686
852.382	0.311878
862.025	0.277098
871.667	0.222893
881.309	0.172152
890.952	0.137915
900.594	0.116166
910.236	0.121254
919.879	0.159
929.521	0.172429
939.163	0.130211
948.806	0.0948969
958.448	0.103655
968.09	0.127941
977.733	0.148787
987.375	0.145444
997.017	0.131319
1006.66	0.114413
1016.3	0.0929994
1025.94	0.0698659
1035.59	0.0548765
1045.23	0.0466834
1054.87	0.0431987
1064.51	0.0422481
1074.16	0.0422798
1083.8	0.0420568
1093.44	0.0424331
1103.08	0.0460683
1112.72	0.0495558
1122.37	0.0552198
1132.01	0.0647594
1141.65	0.0791802
1151.3	0.094625
1160.94	0.099175
1170.58	0.0823135
1180.22	0.0631435
1189.86	0.0486627
1199.51	0.0382731
1209.15	0.0345928
1218.79	0.0354745
1228.43	0.0351359
1238.08	0.0347687
1247.72	0.0343201
1257.36	0.0310552
1267	0.0277135
1276.64	0.0271821
1286.29	0.0280097
1295.93	0.0289355
1305.57	0.0288367
1315.21	0.0289563
1324.86	0.0299073
1334.5	0.0304692
1344.14	0.0314913
1353.78	0.0330311
1363.43	0.0364232
1373.07	0.0376562
1382.71	0.0401186
1392.35	0.0420609
1401.99	0.0450409
1411.64	0.0476152
1421.28	0.0492257
1430.92	0.0499728
1440.57	0.049324
1450.21	0.048752
1459.85	0.0472581
1469.49	0.0441513
1479.13	0.0406849
1488.78	0.0394293
1498.42	0.0409363
1508.06	0.0445869
1517.7	0.0358448
1527.35	0.0318495
1536.99	0.0305089
1546.63	0.0292666
1556.27	0.0288973
1565.91	0.0281266
1575.56	0.028875
1585.2	0.0303383
1594.84	0.033489
1604.48	0.0400192
1614.13	0.048433
1623.77	0.0640282
1633.41	0.0824395
1643.05	0.0897488
1652.7	0.0927736
1662.34	0.0766739
1671.98	0.0621453
1681.62	0.0545652
1691.27	0.0414193
1700.91	0.0307016
1710.55	0.0233659
1720.19	0.0225617
1729.84	0.0245273
1739.48	0.0227652
1749.12	0.0173979
1758.76	0.0176695
1768.4	0.0201338
1778.05	0.0187591
1787.69	0.0169604
1797.33	0.0158765
1806.97	0.015072
1816.62	0.0151121
1826.26	0.0152536
1835.9	0.0141152
1845.54	0.0140277
1855.18	0.0140528
1864.83	0.0142497
1874.47	0.0144869
1884.11	0.0145352
1893.75	0.0154204
1903.4	0.0153817
1913.04	0.0155832
1922.68	0.0150437
1932.32	0.0144322
1941.97	0.0144086
1951.61	0.014218
1961.25	0.0141584
1970.89	0.0138848
1980.54	0.0153645
1990.18	0.0145931
1999.82	0.0155156
2009.46	0.0143392
2019.11	0.0156721
2028.75	0.0171966
2038.39	0.0174471
2048.03	0.017222
2057.67	0.0178705
2067.32	0.0188343
2076.96	0.0190187
2086.6	0.0189249
2096.24	0.0194182
2105.89	0.0211805
2115.53	0.0210685
2125.17	0.0204858
2134.81	0.0205069
2144.45	0.0193235
2154.1	0.0212074
2163.74	0.0241291
2173.38	0.0232932
2183.02	0.0236483
2192.67	0.0237123
2202.31	0.0249751
2211.95	0.0241599
2221.59	0.0236931
2231.24	0.0242776
2240.88	0.0249563
2250.52	0.0244679
2260.16	0.0244188
2269.8	0.0251652
2279.45	0.0256438
2289.09	0.0262174
2298.73	0.0255607
2308.38	0.0259165
2318.02	0.0263179
2327.66	0.0268244
2337.3	0.0265221
2346.94	0.0258881
2356.59	0.0263286
2366.23	0.0261217
2375.87	0.0243414
2385.51	0.0234469
2395.16	0.0235516
2404.8	0.0231819
2414.44	0.0236091
2424.08	0.02323
2433.72	0.0232375
2443.37	0.0232346
2453.01	0.0240004
2462.65	0.0239125
2472.29	0.0238374
2481.94	0.0241391
2491.58	0.0244604
2501.22	0.0246687
2510.86	0.0249872
2520.51	0.0255043
2530.15	0.0260329
2539.79	0.0256696
2549.43	0.0261713
2559.07	0.026368
2568.72	0.0265969
2578.36	0.0267593
2588	0.0270733
2597.64	0.0274366
2607.29	0.0280758
2616.93	0.0287805
2626.57	0.0287375
2636.21	0.0296047
2645.86	0.030122
2655.5	0.0304753
2665.14	0.0309604
2674.78	0.0310508
2684.43	0.0316456
2694.07	0.0323549
2703.71	0.0332078
2713.35	0.0340625
2722.99	0.0346407
2732.64	0.0357104
2742.28	0.0363702
2751.92	0.0378363
2761.56	0.0384662
2771.21	0.03973
2780.85	0.0411535
2790.49	0.0422438
2800.13	0.0434366
2809.78	0.0450185
2819.42	0.0464715
2829.06	0.0485484
2838.7	0.050464
2848.34	0.0524041
2857.99	0.055529
2867.63	0.0587058
2877.27	0.0607104
2886.91	0.062215
2896.56	0.0651551
2906.2	0.0681494
2915.84	0.0699571
2925.48	0.0744737
2935.13	0.0769073
2944.77	0.0787067
2954.41	0.0837563
2964.05	0.086023
2973.7	0.0845014
2983.34	0.0844189
2992.98	0.0850628
3002.62	0.086915
3012.26	0.0902382
3021.91	0.0926833
3031.55	0.0958521
3041.19	0.0983805
3050.83	0.101219
3060.48	0.104438
3070.12	0.107366
3079.76	0.110822
3089.4	0.114095
3099.05	0.11769
3108.69	0.121335
3118.33	0.124712
3127.97	0.128079
3137.61	0.131569
3147.26	0.13495
3156.9	0.138788
3166.54	0.142246
3176.18	0.147038
3185.83	0.152097
3195.47	0.157198
3205.11	0.16301
3214.75	0.167737
3224.4	0.17143
3234.04	0.175665
3243.68	0.178187
3253.32	0.18128
3262.97	0.183382
3272.61	0.185373
3282.25	0.187331
3291.89	0.188766
3301.53	0.190434
3311.18	0.191102
3320.82	0.188486
3330.46	0.183958
3340.1	0.178866
3349.75	0.173966
3359.39	0.169774
3369.03	0.166799
3378.67	0.16455
3388.32	0.162967
3397.96	0.160676
3407.6	0.159763
3417.24	0.159909
3426.89	0.161087
3436.53	0.164059
3446.17	0.169398
3455.81	0.175927
3465.45	0.185587
3475.1	0.196221
3484.74	0.205603
3494.38	0.212074
3504.02	0.214305
3513.67	0.210297
3523.31	0.201856
3532.95	0.186461
3542.59	0.166056
3552.24	0.144022
3561.88	0.121865
3571.52	0.101509
3581.16	0.0834421
3590.8	0.068104
3600.45	0.0543833
3610.09	0.0445672
3619.73	0.0357463
3629.37	0.0297501
3639.02	0.0243457
3648.66	0.0221224
3658.3	0.017617
3667.94	0.0173373
3677.59	0.015893
3687.23	0.0152551
3696.87	0.013129
3706.51	0.0138856
3716.16	0.0136156
3725.8	0.0130323
3735.44	0.0148093
3745.08	0.0148854
3754.72	0.013725
3764.37	0.0136123
3774.01	0.0144061
3783.65	0.0137036
3793.29	0.0136494
3802.94	0.0144755
3812.58	0.014347
3822.22	0.015332
3831.86	0.0155608
3841.51	0.0152726
3851.15	0.0163134
3860.79	0.0151592
3870.43	0.0156615
3880.07	0.0143523
3889.72	0.0151636
3899.36	0.0157633
3909	0.0154104
3918.64	0.0155993
3928.29	0.0157816
3937.93	0.0158853
3947.57	0.0160806
3957.21	0.0160728
3966.86	0.0160704
3976.5	0.0160814
3986.14	0.0160362
3995.78	0.0159222
