Measurement: Infrared, Infrared Data Processed
Mineral: Smithsonite
Rruff sample: R040051
Ideal chemistry: Zn^2+^CO_3_
Locality: Berg Aukas mine, Grootfontein, Namibia
Source: University of Arizona Mineral Museum
Description: Yellowish brown botryoidal groups
Measured chemistry: (Zn_0.94_Ca_0.02_Mg_0.02_)C_1.01_O_3_
x	intensity
399.193	0
408.835	0.0270212
418.477	0.0213716
428.12	0.0178474
437.762	0.0165048
447.404	0.0154664
457.047	0.0161258
466.689	0.0150165
476.331	0.0155077
485.974	0.015729
495.616	0.0151911
505.258	0.0147879
514.901	0.0147201
524.543	0.0146339
534.185	0.015292
543.828	0.0163876
553.47	0.0169222
563.112	0.0182441
572.755	0.0202076
582.397	0.0211868
592.039	0.0240143
601.682	0.0244542
611.324	0.0269162
620.966	0.0268402
630.609	0.0235446
640.251	0.0244239
649.893	0.0256559
659.536	0.027557
669.178	0.0302797
678.82	0.0367479
688.463	0.033365
698.105	0.0350155
707.747	0.0395798
717.39	0.0468009
727.032	0.0611495
736.674	0.109892
746.317	0.141166
755.959	0.0286
765.601	0.028542
775.244	0.032376
784.886	0.0367001
794.528	0.0415578
804.171	0.0469652
813.813	0.0549465
823.455	0.0673571
833.098	0.0891456
842.74	0.127186
852.382	0.200161
862.025	0.335135
871.667	0.26785
881.309	0.0817489
890.952	0.0462412
900.594	0.0493719
910.236	0.0523145
919.879	0.0535428
929.521	0.055495
939.163	0.0569747
948.806	0.0570341
958.448	0.057702
968.09	0.0588929
977.733	0.0611427
987.375	0.0619032
997.017	0.0630882
1006.66	0.0650537
1016.3	0.0677216
1025.94	0.0709634
1035.59	0.0744975
1045.23	0.0777962
1054.87	0.0814039
1064.51	0.0851977
1074.16	0.0903203
1083.8	0.0957055
1093.44	0.101352
1103.08	0.108002
1112.72	0.115725
1122.37	0.123917
1132.01	0.129513
1141.65	0.134877
1151.3	0.143935
1160.94	0.154245
1170.58	0.158245
1180.22	0.157044
1189.86	0.155105
1199.51	0.153141
1209.15	0.15455
1218.79	0.160736
1228.43	0.166235
1238.08	0.174037
1247.72	0.183633
1257.36	0.194294
1267	0.206657
1276.64	0.220686
1286.29	0.236422
1295.93	0.253222
1305.57	0.271796
1315.21	0.292981
1324.86	0.316422
1334.5	0.342396
1344.14	0.370786
1353.78	0.406359
1363.43	0.444156
1373.07	0.486143
1382.71	0.529408
1392.35	0.567291
1401.99	0.595987
1411.64	0.586223
1421.28	0.545995
1430.92	0.492974
1440.57	0.443289
1450.21	0.3997
1459.85	0.358106
1469.49	0.32035
1479.13	0.284938
1488.78	0.249941
1498.42	0.21648
1508.06	0.183964
1517.7	0.153174
1527.35	0.124154
1536.99	0.0989764
1546.63	0.077178
1556.27	0.0571504
1565.91	0.0399854
1575.56	0.0285393
1585.2	0.0263339
1594.84	0.0251512
1604.48	0.0254969
1614.13	0.0220118
1623.77	0.0177255
1633.41	0.0144648
1643.05	0.0129474
1652.7	0.0116628
1662.34	0.0110297
1671.98	0.0104865
1681.62	0.00934488
1691.27	0.00903089
1700.91	0.00773282
1710.55	0.00717601
1720.19	0.00655046
1729.84	0.00686634
1739.48	0.00666243
1749.12	0.00655806
1758.76	0.00754846
1768.4	0.00788148
1778.05	0.00848944
1787.69	0.0091004
1797.33	0.0119106
1806.97	0.0174043
1816.62	0.0173043
1826.26	0.0154521
1835.9	0.0101144
1845.54	0.00756736
1855.18	0.0071434
1864.83	0.00693261
1874.47	0.00674517
1884.11	0.00623915
1893.75	0.00704096
1903.4	0.00762449
1913.04	0.00676196
1922.68	0.00764106
1932.32	0.00622651
1941.97	0.00855296
1951.61	0.00717975
1961.25	0.00714077
1970.89	0.00648751
1980.54	0.011782
1990.18	0.00769157
1999.82	0.00729525
2009.46	0.00771211
2019.11	0.00805444
2028.75	0.00811276
2038.39	0.00952517
2048.03	0.0128971
2057.67	0.010517
2067.32	0.0100997
2076.96	0.0106304
2086.6	0.0114144
2096.24	0.0105052
2105.89	0.0114095
2115.53	0.0121732
2125.17	0.0107069
2134.81	0.0106606
2144.45	0.00818506
2154.1	0.00682251
2163.74	0.0111573
2173.38	0.00913202
2183.02	0.00957037
2192.67	0.0118598
2202.31	0.0125752
2211.95	0.011854
2221.59	0.0127412
2231.24	0.0118997
2240.88	0.0130338
2250.52	0.0138374
2260.16	0.0149372
2269.8	0.0160214
2279.45	0.0159186
2289.09	0.0166656
2298.73	0.0169262
2308.38	0.0172581
2318.02	0.0179062
2327.66	0.0170329
2337.3	0.0170618
2346.94	0.0169919
2356.59	0.0174338
2366.23	0.0160026
2375.87	0.016631
2385.51	0.0172452
2395.16	0.0168066
2404.8	0.0174412
2414.44	0.0178334
2424.08	0.0179395
2433.72	0.0179337
2443.37	0.0182245
2453.01	0.0203122
2462.65	0.0207659
2472.29	0.0230332
2481.94	0.0275444
2491.58	0.0339313
2501.22	0.0308465
2510.86	0.0291426
2520.51	0.0245981
2530.15	0.0242396
2539.79	0.0208657
2549.43	0.0216467
2559.07	0.0205621
2568.72	0.0219405
2578.36	0.0223714
2588	0.0206006
2597.64	0.021383
2607.29	0.0215388
2616.93	0.0213567
2626.57	0.0216228
2636.21	0.0213384
2645.86	0.0210301
2655.5	0.021243
2665.14	0.021178
2674.78	0.0202033
2684.43	0.0206027
2694.07	0.0201818
2703.71	0.0206124
2713.35	0.0208986
2722.99	0.0212592
2732.64	0.0209364
2742.28	0.020947
2751.92	0.0214833
2761.56	0.0216255
2771.21	0.0213787
2780.85	0.0222641
2790.49	0.0227491
2800.13	0.0234117
2809.78	0.0249105
2819.42	0.0263752
2829.06	0.026994
2838.7	0.0277437
2848.34	0.0275093
2857.99	0.0268074
2867.63	0.0262377
2877.27	0.0270429
2886.91	0.0258664
2896.56	0.026617
2906.2	0.0269169
2915.84	0.0264823
2925.48	0.0279805
2935.13	0.0279871
2944.77	0.0292385
2954.41	0.0279825
2964.05	0.0286423
2973.7	0.0287897
2983.34	0.0298839
2992.98	0.0289894
3002.62	0.0293373
3012.26	0.028565
3021.91	0.0294408
3031.55	0.0292432
3041.19	0.0299004
3050.83	0.0290962
3060.48	0.0310013
3070.12	0.032159
3079.76	0.0329947
3089.4	0.0335187
3099.05	0.0332788
3108.69	0.0340163
3118.33	0.0354053
3127.97	0.0359771
3137.61	0.0360789
3147.26	0.0361632
3156.9	0.0379208
3166.54	0.0378013
3176.18	0.0385754
3185.83	0.0377367
3195.47	0.0380454
3205.11	0.0386911
3214.75	0.037951
3224.4	0.0396212
3234.04	0.0407699
3243.68	0.0412587
3253.32	0.040563
3262.97	0.0409353
3272.61	0.0399598
3282.25	0.0415842
3291.89	0.0423992
3301.53	0.0423169
3311.18	0.0422568
3320.82	0.041685
3330.46	0.0418203
3340.1	0.0431706
3349.75	0.0435243
3359.39	0.0419817
3369.03	0.0425728
3378.67	0.0429271
3388.32	0.0432904
3397.96	0.0438656
3407.6	0.0445851
3417.24	0.0427031
3426.89	0.0424114
3436.53	0.0428606
3446.17	0.0425198
3455.81	0.043133
3465.45	0.0414144
3475.1	0.042526
3484.74	0.0442127
3494.38	0.0439145
3504.02	0.0416823
3513.67	0.0431687
3523.31	0.0418605
3532.95	0.0421591
3542.59	0.0403255
3552.24	0.0435449
3561.88	0.0417428
3571.52	0.0401373
3581.16	0.0400857
3590.8	0.0399002
3600.45	0.0389627
3610.09	0.0381651
3619.73	0.0398639
3629.37	0.0366008
3639.02	0.038897
3648.66	0.0375508
3658.3	0.0368689
3667.94	0.0401973
3677.59	0.0398354
3687.23	0.0413862
3696.87	0.0380273
3706.51	0.0401097
3716.16	0.0410329
3725.8	0.0417732
3735.44	0.0418291
3745.08	0.0410046
3754.72	0.0404807
3764.37	0.0416233
3774.01	0.0415452
3783.65	0.0444416
3793.29	0.0447832
3802.94	0.0422591
3812.58	0.0433405
3822.22	0.0432135
3831.86	0.042434
3841.51	0.0409801
3851.15	0.043871
3860.79	0.0432771
3870.43	0.0424816
3880.07	0.0423886
3889.72	0.0439496
3899.36	0.0452371
3909	0.0450836
3918.64	0.0438741
3928.29	0.043047
3937.93	0.0438142
3947.57	0.0482008
3957.21	0.0477407
3966.86	0.047258
3976.5	0.0464676
3986.14	0.0452186
3995.78	0.0465449
