Measurement: Infrared, Infrared Data Processed
Mineral: Sogdianite
Rruff sample: R050648
Ideal chemistry: KZr^4+^_2_(Li_3_Si_12_)O_30_
Locality: Dara-i-Pioz, Tadjikistan
Source: Dmitri Belakyovski
Description: Purple tabular fragment, used in the Geiger & Grodzicki (2012) study
Measured chemistry: ([box]_1.13_Na_0.87_)_Σ=2_K_1.00_Li_3.00_(Zr_0.76_Fe^3+^_0.73_Ti_0.37_Al_0.14_)_Σ=2_Si_12.00_O_30_ ; Li not measured but estimated by difference and charge balance.
x	intensity
399.193	0.180426
408.835	0.136707
418.477	0.105437
428.12	0.138269
437.762	0.204811
447.404	0.253123
457.047	0.233514
466.689	0.222907
476.331	0.171475
485.974	0.129966
495.616	0.132071
505.258	0.163944
514.901	0.177472
524.543	0.171455
534.185	0.160934
543.828	0.143098
553.47	0.123779
563.112	0.107633
572.755	0.0929224
582.397	0.0842499
592.039	0.0827184
601.682	0.0815141
611.324	0.0655079
620.966	0.0685792
630.609	0.0947817
640.251	0.133341
649.893	0.15728
659.536	0.139933
669.178	0.099107
678.82	0.0542672
688.463	0.0304498
698.105	0.0259439
707.747	0.0227895
717.39	0.021432
727.032	0.0231717
736.674	0.0265632
746.317	0.0310362
755.959	0.035008
765.601	0.0400804
775.244	0.0568206
784.886	0.0960608
794.528	0.0802439
804.171	0.0408861
813.813	0.037513
823.455	0.0413913
833.098	0.0422495
842.74	0.0462687
852.382	0.0530224
862.025	0.0634851
871.667	0.0761138
881.309	0.0931279
890.952	0.115878
900.594	0.146042
910.236	0.18738
919.879	0.242091
929.521	0.292982
939.163	0.317646
948.806	0.324118
958.448	0.345438
968.09	0.379235
977.733	0.398882
987.375	0.42081
997.017	0.441637
1006.66	0.426021
1016.3	0.397375
1025.94	0.351636
1035.59	0.297979
1045.23	0.243042
1054.87	0.195769
1064.51	0.156726
1074.16	0.122203
1083.8	0.0958194
1093.44	0.0991072
1103.08	0.175323
1112.72	0.27062
1122.37	0.265642
1132.01	0.214352
1141.65	0.180004
1151.3	0.180498
1160.94	0.175615
1170.58	0.141215
1180.22	0.103321
1189.86	0.0819405
1199.51	0.0690635
1209.15	0.0583477
1218.79	0.0451518
1228.43	0.0321315
1238.08	0.0223551
1247.72	0.0156052
1257.36	0.0117763
1267	0.00958065
1276.64	0.00811895
1286.29	0.00720669
1295.93	0.00636755
1305.57	0.00618078
1315.21	0.00580413
1324.86	0.00572341
1334.5	0.00544665
1344.14	0.0053547
1353.78	0.00561665
1363.43	0.00556161
1373.07	0.00556916
1382.71	0.00601851
1392.35	0.00653528
1401.99	0.00687678
1411.64	0.00703922
1421.28	0.00673008
1430.92	0.00655817
1440.57	0.00651197
1450.21	0.00637525
1459.85	0.00615428
1469.49	0.00664928
1479.13	0.00719626
1488.78	0.00683773
1498.42	0.0066985
1508.06	0.00654918
1517.7	0.0061989
1527.35	0.00609725
1536.99	0.00662332
1546.63	0.0065921
1556.27	0.00753239
1565.91	0.00742493
1575.56	0.00853928
1585.2	0.00854378
1594.84	0.00860683
1604.48	0.00878758
1614.13	0.00863277
1623.77	0.00864392
1633.41	0.00877519
1643.05	0.00839037
1652.7	0.00877868
1662.34	0.00856515
1671.98	0.00797865
1681.62	0.00682342
1691.27	0.00608491
1700.91	0.00465396
1710.55	0.00313042
1720.19	0.0046738
1729.84	0.00524039
1739.48	0.00219121
1749.12	0.00300303
1758.76	0.00405432
1768.4	0.00496041
1778.05	0.00521454
1787.69	0.00562367
1797.33	0.00505462
1806.97	0.00515182
1816.62	0.00489702
1826.26	0.00407913
1835.9	0.00388412
1845.54	0.00425621
1855.18	0.0039707
1864.83	0.0042172
1874.47	0.00386237
1884.11	0.00396266
1893.75	0.00266834
1903.4	0.00346301
1913.04	0.00173099
1922.68	0.000422033
1932.32	-0.00026336
1941.97	0.00034966
1951.61	-0.00124859
1961.25	-0.0037444
1970.89	-0.00322573
1980.54	-0.00206445
1990.18	-0.00257932
1999.82	-0.00313549
2009.46	-0.0064616
2019.11	-0.00462736
2028.75	-0.00423539
2038.39	-0.00164793
2048.03	0.000870861
2057.67	-0.000303209
2067.32	0.000450971
2076.96	0.000549129
2086.6	0.0010452
2096.24	0.00100956
2105.89	0.00214192
2115.53	0.00229725
2125.17	0.00152844
2134.81	0.00122063
2144.45	0.00222837
2154.1	-0.00283026
2163.74	0.00160314
2173.38	0.000752979
2183.02	0.00131758
2192.67	0.00455774
2202.31	-0.00138225
2211.95	0.00201864
2221.59	0.000502669
2231.24	-0.00112286
2240.88	-0.000810688
2250.52	0.00185076
2260.16	0.00449594
2269.8	0.00317368
2279.45	0.00622751
2289.09	0.00647462
2298.73	0.00641135
2308.38	0.00700435
2318.02	0.00903648
2327.66	0.00708329
2337.3	0.00846766
2346.94	0.00759307
2356.59	0.00828261
2366.23	0.0084481
2375.87	0.00734663
2385.51	0.00686311
2395.16	0.00709395
2404.8	0.00896821
2414.44	0.00880238
2424.08	0.0094772
2433.72	0.0086699
2443.37	0.00955741
2453.01	0.0106689
2462.65	0.0103363
2472.29	0.0087271
2481.94	0.00901412
2491.58	0.0101887
2501.22	0.0110458
2510.86	0.00990253
2520.51	0.00916944
2530.15	0.0101764
2539.79	0.0094314
2549.43	0.0113022
2559.07	0.011976
2568.72	0.0115149
2578.36	0.0125479
2588	0.0115949
2597.64	0.0126478
2607.29	0.0121349
2616.93	0.0128982
2626.57	0.0117713
2636.21	0.0132973
2645.86	0.0129528
2655.5	0.0124478
2665.14	0.0118412
2674.78	0.0123783
2684.43	0.0108937
2694.07	0.0127063
2703.71	0.0125213
2713.35	0.0128214
2722.99	0.0136905
2732.64	0.0115419
2742.28	0.0137376
2751.92	0.0130508
2761.56	0.0126429
2771.21	0.013085
2780.85	0.0151737
2790.49	0.0141716
2800.13	0.013569
2809.78	0.0156479
2819.42	0.0138707
2829.06	0.0138769
2838.7	0.0151784
2848.34	0.0150713
2857.99	0.0126847
2867.63	0.0139606
2877.27	0.0152075
2886.91	0.0146487
2896.56	0.0153752
2906.2	0.0154401
2915.84	0.0163815
2925.48	0.0129348
2935.13	0.0148578
2944.77	0.0149725
2954.41	0.0138183
2964.05	0.0135925
2973.7	0.0176891
2983.34	0.0165518
2992.98	0.0172714
3002.62	0.0185166
3012.26	0.0178635
3021.91	0.0172919
3031.55	0.0192286
3041.19	0.0180431
3050.83	0.0180008
3060.48	0.0190937
3070.12	0.019399
3079.76	0.0183244
3089.4	0.0211465
3099.05	0.0188773
3108.69	0.0207367
3118.33	0.0208932
3127.97	0.0219852
3137.61	0.0238544
3147.26	0.0207163
3156.9	0.0235419
3166.54	0.0242782
3176.18	0.0246957
3185.83	0.0245769
3195.47	0.0234169
3205.11	0.0262485
3214.75	0.0277162
3224.4	0.0263608
3234.04	0.0277399
3243.68	0.029053
3253.32	0.0274853
3262.97	0.0272365
3272.61	0.027683
3282.25	0.0254943
3291.89	0.0300103
3301.53	0.0285114
3311.18	0.0300805
3320.82	0.0279831
3330.46	0.0318908
3340.1	0.0311667
3349.75	0.0307587
3359.39	0.0304661
3369.03	0.0332967
3378.67	0.0300889
3388.32	0.0270924
3397.96	0.0281419
3407.6	0.0286804
3417.24	0.0275253
3426.89	0.0277482
3436.53	0.0277043
3446.17	0.0274876
3455.81	0.0284392
3465.45	0.0264215
3475.1	0.0244021
3484.74	0.0256721
3494.38	0.0294174
3504.02	0.0230826
3513.67	0.0260432
3523.31	0.0205321
3532.95	0.025293
3542.59	0.0228368
3552.24	0.0235903
3561.88	0.0211167
3571.52	0.0191897
3581.16	0.0226694
3590.8	0.0212186
3600.45	0.0211195
3610.09	0.0205412
3619.73	0.0196829
3629.37	0.0188396
3639.02	0.0170929
3648.66	0.0206764
3658.3	0.017089
3667.94	0.0177234
3677.59	0.0204252
3687.23	0.0206995
3696.87	0.0199237
3706.51	0.0180321
3716.16	0.0170047
3725.8	0.0201641
3735.44	0.0145375
3745.08	0.0221096
3754.72	0.0253372
3764.37	0.0207562
3774.01	0.0190405
3783.65	0.0210148
3793.29	0.0204349
3802.94	0.0211301
3812.58	0.0238863
3822.22	0.0239024
3831.86	0.019844
3841.51	0.0213779
3851.15	0.0195552
3860.79	0.024965
3870.43	0.0272967
3880.07	0.0208692
3889.72	0.0237239
3899.36	0.0213352
3909	0.0194358
3918.64	0.0173773
3928.29	0.0232506
3937.93	0.0231402
3947.57	0.0219161
3957.21	0.0230337
3966.86	0.0221229
3976.5	0.0247672
3986.14	0.0245758
3995.78	0.0239472
