Measurement: Infrared, Infrared Data Processed
Mineral: Spessartine
Rruff sample: R080053
Ideal chemistry: Mn^2+^_3_Al_2_(SiO_4_)_3_
Locality: East Africa
Source: www.multicolour.com
Description: Transparent orange fragments
Measured chemistry: (Mn^2+^_1.32_Mg_0.96_Fe^2+^_0.38_Fe^3+^_0.04_Ca_0.30_)Al_2.00_((Si_0.99_Al_0.01_)O_4_)_3_; Fe^2+^ and Fe^3+^ estimated by charge balance
x	intensity
374.123	0.245992
383.765	0.236254
393.407	0.23449
403.05	0.242102
412.692	0.248595
422.334	0.258231
431.976	0.260046
441.619	0.261991
451.261	0.257594
460.904	0.229332
470.546	0.189922
480.188	0.154632
489.83	0.169273
499.473	0.169327
509.115	0.168049
518.758	0.183355
528.4	0.20183
538.042	0.2131
547.684	0.224335
557.327	0.236717
566.969	0.234638
576.611	0.22358
586.254	0.218373
595.896	0.216476
605.538	0.215313
615.181	0.206912
624.823	0.18987
634.466	0.199104
644.108	0.198427
653.75	0.188753
663.393	0.179228
673.035	0.171866
682.677	0.165166
692.319	0.159693
701.962	0.156453
711.604	0.149402
721.246	0.140255
730.889	0.131831
740.531	0.125008
750.173	0.119557
759.816	0.116189
769.458	0.112152
779.101	0.10666
788.743	0.0996809
798.385	0.0906351
808.028	0.0860301
817.67	0.0830086
827.312	0.0797208
836.955	0.0752321
846.597	0.0708015
856.239	0.0661248
865.881	0.0606979
875.524	0.0548353
885.166	0.0536043
894.808	0.0567561
904.451	0.0549572
914.093	0.0510552
923.736	0.0494792
933.378	0.0538479
943.02	0.0663095
952.663	0.0787502
962.305	0.0830788
971.947	0.0805227
981.59	0.0771957
991.232	0.0718105
1000.87	0.0639841
1010.52	0.0562878
1020.16	0.0534004
1029.8	0.0530987
1039.44	0.0526437
1049.09	0.0508685
1058.73	0.0472935
1068.37	0.0460158
1078.01	0.0460616
1087.65	0.0452996
1097.3	0.0416551
1106.94	0.034353
1116.58	0.0262749
1126.22	0.0193406
1135.87	0.0141585
1145.51	0.0116281
1155.15	0.0108984
1164.79	0.0101802
1174.44	0.00941946
1184.08	0.00950702
1193.72	0.00998839
1203.36	0.011309
1213.01	0.0148329
1222.65	0.0202252
1232.29	0.0261083
1241.93	0.0307887
1251.58	0.0326094
1261.22	0.032502
1270.86	0.032121
1280.5	0.0319004
1290.14	0.0299743
1299.79	0.0275014
1309.43	0.0249146
1319.07	0.022831
1328.71	0.0213067
1338.36	0.0204465
1348	0.020575
1357.64	0.019962
1367.28	0.0182151
1376.92	0.0160445
1386.57	0.0133747
1396.21	0.0109485
1405.85	0.00930483
1415.49	0.00763031
1425.14	0.00668185
1434.78	0.00577522
1444.42	0.00477479
1454.06	0.00422854
1463.71	0.00368832
1473.35	0.00357559
1482.99	0.00311675
1492.63	0.00327196
1502.28	0.00338375
1511.92	0.00330431
1521.56	0.00341645
1531.2	0.00345136
1540.85	0.00389343
1550.49	0.00346849
1560.13	0.0043327
1569.77	0.00404228
1579.41	0.00419884
1589.06	0.00440753
1598.7	0.00483838
1608.34	0.00535424
1617.98	0.00589731
1627.63	0.00661825
1637.27	0.00732376
1646.91	0.00776236
1656.55	0.00751157
1666.19	0.00689457
1675.84	0.00619526
1685.48	0.00592704
1695.12	0.00546159
1704.77	0.00497801
1714.41	0.00522128
1724.05	0.00488757
1733.69	0.00489062
1743.33	0.00416789
1752.98	0.00454052
1762.62	0.0049577
1772.26	0.00543101
1781.9	0.00527025
1791.55	0.00527749
1801.19	0.0051724
1810.83	0.00547253
1820.47	0.00569551
1830.12	0.00556299
1839.76	0.00564485
1849.4	0.00559551
1859.04	0.00546181
1868.68	0.00594333
1878.33	0.00592617
1887.97	0.00601009
1897.61	0.0061256
1907.25	0.00557113
1916.9	0.00579186
1926.54	0.0047215
1936.18	0.00495735
1945.82	0.00463086
1955.46	0.00434142
1965.11	0.00398987
1974.75	0.00386792
1984.39	0.00591674
1994.04	0.00542489
2003.68	0.00401588
2013.32	0.00347833
2022.96	0.00509689
2032.6	0.00495442
2042.25	0.00685349
2051.89	0.00809986
2061.53	0.00642079
2071.17	0.00744235
2080.82	0.00872481
2090.46	0.0077418
2100.1	0.00801349
2109.74	0.00858089
2119.39	0.00802473
2129.03	0.00607393
2138.67	0.00739784
2148.31	0.00629999
2157.95	0.00568127
2167.6	0.00974056
2177.24	0.00854715
2186.88	0.0082455
2196.52	0.00989364
2206.17	0.00922922
2215.81	0.00937883
2225.45	0.00980535
2235.09	0.0101162
2244.74	0.0105071
2254.38	0.0100515
2264.02	0.0108728
2273.66	0.0108855
2283.3	0.0120137
2292.95	0.0117588
2302.59	0.0116303
2312.23	0.0121222
2321.87	0.0135348
2331.52	0.0125399
2341.16	0.0121706
2350.8	0.0119014
2360.44	0.0128098
2370.09	0.0115619
2379.73	0.011033
2389.37	0.011246
2399.01	0.0109854
2408.66	0.0117879
2418.3	0.0109311
2427.94	0.011505
2437.58	0.0114797
2447.22	0.0116001
2456.87	0.011751
2466.51	0.0115708
2476.15	0.0116308
2485.79	0.0109635
2495.44	0.0115507
2505.08	0.0117798
2514.72	0.0113237
2524.36	0.0119065
2534.01	0.0119382
2543.65	0.0117033
2553.29	0.0113634
2562.93	0.0115683
2572.57	0.0118814
2582.22	0.0122106
2591.86	0.0121513
2601.5	0.0127277
2611.14	0.0128301
2620.79	0.0132351
2630.43	0.0134396
2640.07	0.0136982
2649.71	0.0138919
2659.36	0.0135706
2669	0.0132323
2678.64	0.0135411
2688.28	0.013454
2697.93	0.0135092
2707.57	0.0135431
2717.21	0.0135168
2726.85	0.0137835
2736.49	0.0140056
2746.14	0.0143563
2755.78	0.0139522
2765.42	0.0143328
2775.06	0.0146446
2784.71	0.0145011
2794.35	0.0149052
2803.99	0.0150882
2813.63	0.0154459
2823.28	0.0152312
2832.92	0.0157015
2842.56	0.0161402
2852.2	0.0158824
2861.84	0.0159202
2871.49	0.0160439
2881.13	0.0161097
2890.77	0.0171338
2900.41	0.0168815
2910.06	0.0172601
2919.7	0.0176875
2929.34	0.0169763
2938.98	0.0172398
2948.62	0.0165806
2958.27	0.0173446
2967.91	0.0171643
2977.55	0.0170278
2987.2	0.0172882
2996.84	0.0178303
3006.48	0.0179386
3016.12	0.0174958
3025.76	0.0176763
3035.41	0.0183555
3045.05	0.0182883
3054.69	0.0182592
3064.33	0.0192152
3073.98	0.019295
3083.62	0.019707
3093.26	0.0197094
3102.9	0.0204548
3112.55	0.0205055
3122.19	0.0205511
3131.83	0.0213762
3141.47	0.0212196
3151.11	0.0212354
3160.76	0.0210037
3170.4	0.0223766
3180.04	0.022636
3189.68	0.0229512
3199.33	0.0233059
3208.97	0.0234086
3218.61	0.0236126
3228.25	0.0239983
3237.9	0.0242197
3247.54	0.0244428
3257.18	0.0249456
3266.82	0.0247274
3276.47	0.0252745
3286.11	0.0250545
3295.75	0.0257074
3305.39	0.0261261
3315.03	0.0264659
3324.68	0.0265975
3334.32	0.0259654
3343.96	0.0268408
3353.6	0.0280089
3363.25	0.0275814
3372.89	0.0280047
3382.53	0.0278239
3392.17	0.0277612
3401.82	0.0277177
3411.46	0.027119
3421.1	0.027472
3430.74	0.0272552
3440.39	0.0273336
3450.03	0.0287304
3459.67	0.0276311
3469.31	0.0274656
3478.95	0.0285905
3488.6	0.027797
3498.24	0.0282959
3507.88	0.0281001
3517.52	0.0286951
3527.17	0.0277362
3536.81	0.0274156
3546.45	0.028008
3556.09	0.0279529
3565.74	0.026263
3575.38	0.0249197
3585.02	0.025065
3594.66	0.022388
3604.3	0.0208722
3613.95	0.0199974
3623.59	0.0200564
3633.23	0.0195954
3642.87	0.0183619
3652.52	0.0172355
3662.16	0.0167506
3671.8	0.0180611
3681.44	0.0177699
3691.09	0.0177173
3700.73	0.0171477
3710.37	0.0179018
3720.01	0.0169813
3729.66	0.0182474
3739.3	0.0168832
3748.94	0.0188961
3758.58	0.0175646
3768.22	0.0180256
3777.87	0.0167967
3787.51	0.017776
3797.15	0.017668
3806.79	0.0185543
3816.44	0.0185609
3826.08	0.0169479
3835.72	0.0188068
3845.36	0.0175038
3855.01	0.0185966
3864.65	0.0187737
3874.29	0.0180098
3883.93	0.0177089
3893.57	0.0184291
3903.22	0.0180907
3912.86	0.0184949
3922.5	0.017751
3932.14	0.0181385
3941.79	0.0174992
3951.43	0.0178062
3961.07	0.0185985
3970.71	0.0183848
3980.36	0.0177247
3990	0.0188619
3999.64	0.0187206
