Measurement: Infrared, Infrared Data Processed
Mineral: Sphalerite
Rruff sample: R050237
Ideal chemistry: Zn^2+^S^2-^
Locality: Picos de Europa, Spain
Source: Marcus Origlieri
Description: Green single crystal
Measured chemistry: Zn_1.00_S_1.00_
x	intensity
50.1401	0.02058
52.0686	0.0232368
53.9971	0.0269899
55.9255	0.0202845
57.854	0.0217467
59.7825	0.0225974
61.7109	0.021965
63.6394	0.0221165
65.5679	0.0216101
67.4963	0.0216968
69.4248	0.022107
71.3533	0.0240927
73.2817	0.023871
75.2102	0.0245396
77.1387	0.0259471
79.0671	0.027943
80.9956	0.0294935
82.9241	0.0303448
84.8525	0.0295261
86.781	0.028718
88.7095	0.0298023
90.6379	0.0310393
92.5664	0.0322891
94.4948	0.0344914
96.4233	0.0348626
98.3518	0.0364861
100.28	0.0378726
102.209	0.0379735
104.137	0.0386066
106.066	0.039161
107.994	0.0394504
109.923	0.040392
111.851	0.0411167
113.779	0.0420889
115.708	0.0430041
117.636	0.0428562
119.565	0.0433487
121.493	0.0443509
123.422	0.0447929
125.35	0.0460899
127.279	0.0466051
129.207	0.048059
131.136	0.0496849
133.064	0.0505702
134.993	0.0516317
136.921	0.0531843
138.85	0.0534968
140.778	0.0540618
142.707	0.0554238
144.635	0.0570244
146.563	0.0580843
148.492	0.0591612
150.42	0.0592015
152.349	0.0600229
154.277	0.0610959
156.206	0.0627324
158.134	0.063875
160.063	0.0646912
161.991	0.0651671
163.92	0.0662042
165.848	0.0674212
167.777	0.0681766
169.705	0.0692506
171.633	0.0704032
173.562	0.0712788
175.49	0.0723027
177.419	0.0731906
179.347	0.0744495
181.276	0.075101
183.204	0.0758823
185.133	0.0762826
187.061	0.0768886
188.99	0.0780258
190.918	0.0789978
192.847	0.0794109
194.775	0.0798944
196.704	0.080928
198.632	0.0818379
200.56	0.0831144
202.489	0.0843243
204.417	0.085264
206.346	0.0862474
208.274	0.0870042
210.203	0.087456
212.131	0.0876282
214.06	0.0882727
215.988	0.0889997
217.917	0.0901921
219.845	0.0908809
221.774	0.0914202
223.702	0.0921676
225.631	0.0930773
227.559	0.0938181
229.488	0.0949714
231.416	0.0961078
233.344	0.0969839
235.273	0.0975246
237.201	0.0987667
239.13	0.0996794
241.058	0.100516
242.987	0.101111
244.915	0.101856
246.844	0.102504
248.772	0.103273
250.701	0.103826
252.629	0.104395
254.558	0.105398
256.486	0.106231
258.414	0.106404
260.343	0.106245
262.271	0.10616
264.2	0.106353
266.128	0.106388
268.057	0.106038
269.985	0.105259
271.914	0.104632
273.842	0.104105
275.771	0.104013
277.699	0.103374
279.628	0.102473
281.556	0.101851
283.485	0.10126
285.413	0.100471
287.341	0.1002
289.27	0.0996591
291.198	0.0991085
293.127	0.0984504
295.055	0.097172
296.984	0.0958257
298.912	0.0947513
300.841	0.0935856
302.769	0.0926129
304.698	0.0908395
306.626	0.0891172
308.555	0.0871565
310.483	0.085046
312.411	0.0827465
314.34	0.0797259
316.269	0.076331
318.197	0.0731412
320.125	0.0703402
322.054	0.0678121
323.982	0.0649246
325.911	0.0616899
327.839	0.0587684
329.768	0.0559945
331.696	0.0534965
333.625	0.0511474
335.553	0.0484665
337.482	0.045892
339.41	0.0432271
341.339	0.0404248
343.267	0.0371895
345.195	0.033771
347.124	0.030678
349.052	0.0286362
350.981	0.0272921
352.909	0.0262491
354.838	0.0253512
356.766	0.0247851
358.695	0.0247713
360.623	0.0247949
362.552	0.0247704
364.48	0.025022
366.409	0.0253119
368.337	0.0252569
370.265	0.0250148
372.194	0.0252053
374.122	0.0255434
376.051	0.0254646
377.979	0.0252907
379.908	0.0252616
381.836	0.0250425
383.765	0.0249715
385.693	0.0250002
387.622	0.0250622
389.55	0.0254937
391.479	0.0255698
393.407	0.0253734
395.336	0.0256284
397.264	0.0258197
399.192	0.0260274
401.121	0.0260646
403.049	0.0261775
404.978	0.0265631
406.906	0.0265398
408.835	0.026739
410.763	0.0271444
412.692	0.0274596
414.62	0.0279175
416.549	0.0284782
418.477	0.0288766
420.406	0.0290833
422.334	0.0292024
424.262	0.0296045
426.191	0.0299607
428.12	0.0300403
430.048	0.0304573
431.976	0.0311092
433.905	0.031815
435.833	0.0325839
437.762	0.0332684
439.69	0.0338399
441.619	0.0343342
443.547	0.0349764
445.476	0.0358855
447.404	0.0366214
449.333	0.0371199
451.261	0.037813
453.19	0.0388552
455.118	0.0398044
457.046	0.0405334
458.975	0.0412472
460.903	0.042092
462.832	0.0431406
464.76	0.0440514
466.689	0.0452314
468.617	0.0461753
470.546	0.0467083
472.474	0.0472289
474.403	0.0479848
476.331	0.0490368
478.26	0.0500111
480.188	0.0503194
482.116	0.050688
484.045	0.0517458
485.974	0.0530102
487.902	0.0536742
489.83	0.0538977
491.759	0.0542003
493.687	0.0546109
495.616	0.0550136
497.544	0.0558736
499.473	0.0565819
501.401	0.0572404
503.33	0.0579172
505.258	0.0580993
507.187	0.0581356
509.115	0.0583899
511.043	0.059014
512.972	0.0595797
514.9	0.0600865
516.829	0.0606575
518.757	0.0612668
520.686	0.0624752
522.614	0.0629907
524.543	0.0630742
526.471	0.0635094
528.4	0.0637411
530.328	0.0641142
532.257	0.0644462
534.185	0.064794
536.114	0.0657019
538.042	0.0668708
539.971	0.0674154
541.899	0.0676662
543.827	0.0683188
545.756	0.0692545
547.684	0.0700222
549.613	0.070368
551.541	0.0703704
553.47	0.0709674
555.398	0.0720536
557.327	0.0731671
559.255	0.0739616
561.184	0.0744254
563.112	0.0750702
565.041	0.076078
566.969	0.0768797
568.898	0.0775151
570.826	0.0777747
572.755	0.0783125
574.683	0.079206
576.611	0.080108
578.54	0.080588
580.468	0.0808921
582.397	0.0815873
584.325	0.082083
586.254	0.0822229
588.182	0.0826558
590.111	0.0834627
592.039	0.0841181
593.968	0.0844149
595.896	0.0848445
597.824	0.0850384
599.753	0.0850477
601.682	0.0857163
603.61	0.0862094
605.538	0.0860068
607.467	0.0860654
609.395	0.0866035
611.324	0.0868323
613.252	0.0878736
615.181	0.0889347
617.109	0.0891098
619.038	0.0884991
620.966	0.0888059
622.894	0.0904056
624.823	0.0915316
626.751	0.0919842
628.68	0.0925598
630.608	0.0938694
632.537	0.0953869
634.465	0.0959368
636.394	0.0961375
638.322	0.0963594
640.251	0.0965108
642.179	0.0965816
644.108	0.096741
646.036	0.0965347
647.965	0.096592
649.893	0.096968
651.822	0.0975423
653.75	0.0978091
655.678	0.0979062
657.607	0.0984603
659.535	0.0995536
661.464	0.0999312
663.392	0.100178
665.321	0.100814
667.249	0.10124
669.178	0.101729
671.106	0.102436
673.035	0.103101
674.963	0.103428
676.892	0.104049
678.82	0.104982
680.749	0.105946
682.677	0.105993
684.606	0.10547
686.534	0.105786
688.462	0.106463
690.391	0.107282
692.319	0.107802
694.248	0.107873
696.176	0.107835
698.105	0.109186
700.033	0.110626
