Measurement: Infrared, Infrared Data Processed
Mineral: Sphalerite
Rruff sample: R060005
Ideal chemistry: Zn^2+^S^2-^
Locality: Trinacria mine, Lake Poopo, Oruro, Bolivia
Source: University of Arizona Mineral Museum
Description: Steel gray crystal associated with franckeite R050431
Measured chemistry: Zn_0.82_Fe_0.18_S
x	intensity
399.193	0.0174987
408.835	0.0198285
418.477	0.0222667
428.12	0.020568
437.762	0.0305147
447.404	0.0347013
457.047	0.0419764
466.689	0.0524475
476.331	0.056088
485.974	0.0612666
495.616	0.066896
505.258	0.0720844
514.901	0.0767023
524.543	0.0835465
534.185	0.0896728
543.828	0.0963043
553.47	0.103168
563.112	0.108603
572.755	0.11518
582.397	0.121782
592.039	0.129284
601.682	0.134986
611.324	0.134396
620.966	0.137982
630.609	0.141791
640.251	0.140137
649.893	0.140015
659.536	0.142328
669.178	0.145208
678.82	0.147057
688.463	0.149232
698.105	0.151368
707.747	0.153466
717.39	0.155977
727.032	0.157327
736.674	0.159208
746.317	0.161387
755.959	0.163555
765.601	0.165126
775.244	0.166542
784.886	0.168441
794.528	0.170385
804.171	0.171559
813.813	0.173067
823.455	0.17573
833.098	0.177468
842.74	0.179359
852.382	0.181658
862.025	0.184171
871.667	0.186682
881.309	0.188674
890.952	0.191145
900.594	0.193175
910.236	0.195717
919.879	0.198444
929.521	0.200404
939.163	0.203555
948.806	0.205806
958.448	0.209514
968.09	0.212271
977.733	0.214026
987.375	0.217007
997.017	0.220427
1006.66	0.223672
1016.3	0.226583
1025.94	0.229777
1035.59	0.233611
1045.23	0.235866
1054.87	0.239583
1064.51	0.240441
1074.16	0.241151
1083.8	0.242076
1093.44	0.24277
1103.08	0.243747
1112.72	0.243388
1122.37	0.242798
1132.01	0.242461
1141.65	0.242954
1151.3	0.243648
1160.94	0.244846
1170.58	0.245259
1180.22	0.244599
1189.86	0.243453
1199.51	0.242376
1209.15	0.241964
1218.79	0.241506
1228.43	0.241857
1238.08	0.243047
1247.72	0.24448
1257.36	0.245105
1267	0.246833
1276.64	0.248531
1286.29	0.249695
1295.93	0.251722
1305.57	0.252439
1315.21	0.254411
1324.86	0.255748
1334.5	0.256675
1344.14	0.258408
1353.78	0.259829
1363.43	0.261468
1373.07	0.263557
1382.71	0.264965
1392.35	0.266197
1401.99	0.268341
1411.64	0.269181
1421.28	0.270038
1430.92	0.272209
1440.57	0.272915
1450.21	0.274691
1459.85	0.275638
1469.49	0.275845
1479.13	0.276376
1488.78	0.277817
1498.42	0.279473
1508.06	0.28067
1517.7	0.282481
1527.35	0.283582
1536.99	0.285671
1546.63	0.287139
1556.27	0.288369
1565.91	0.289931
1575.56	0.291335
1585.2	0.292034
1594.84	0.293017
1604.48	0.294103
1614.13	0.295254
1623.77	0.29634
1633.41	0.296952
1643.05	0.298479
1652.7	0.298842
1662.34	0.299825
1671.98	0.300721
1681.62	0.302895
1691.27	0.303697
1700.91	0.304966
1710.55	0.306219
1720.19	0.307497
1729.84	0.30997
1739.48	0.309896
1749.12	0.310464
1758.76	0.310601
1768.4	0.312029
1778.05	0.313183
1787.69	0.315268
1797.33	0.315806
1806.97	0.316744
1816.62	0.316888
1826.26	0.31806
1835.9	0.320829
1845.54	0.321735
1855.18	0.32304
1864.83	0.324749
1874.47	0.328016
1884.11	0.329078
1893.75	0.329261
1903.4	0.33203
1913.04	0.333985
1922.68	0.332341
1932.32	0.336412
1941.97	0.334932
1951.61	0.339014
1961.25	0.335007
1970.89	0.339101
1980.54	0.338017
1990.18	0.339203
1999.82	0.34361
2009.46	0.341942
2019.11	0.346419
2028.75	0.343475
2038.39	0.348276
2048.03	0.349989
2057.67	0.351588
2067.32	0.353835
2076.96	0.357422
2086.6	0.355341
2096.24	0.357583
2105.89	0.358869
2115.53	0.360229
2125.17	0.360409
2134.81	0.359844
2144.45	0.363184
2154.1	0.362704
2163.74	0.364457
2173.38	0.364617
2183.02	0.370731
2192.67	0.372123
2202.31	0.37112
2211.95	0.369441
2221.59	0.370534
2231.24	0.374432
2240.88	0.378178
2250.52	0.380303
2260.16	0.37658
2269.8	0.379737
2279.45	0.384712
2289.09	0.386975
2298.73	0.384698
2308.38	0.387253
2318.02	0.387652
2327.66	0.389948
2337.3	0.389602
2346.94	0.391213
2356.59	0.391963
2366.23	0.392585
2375.87	0.395148
2385.51	0.396249
2395.16	0.395951
2404.8	0.396962
2414.44	0.398149
2424.08	0.401385
2433.72	0.403842
2443.37	0.403812
2453.01	0.405791
2462.65	0.406342
2472.29	0.407324
2481.94	0.407601
2491.58	0.411184
2501.22	0.412413
2510.86	0.410579
2520.51	0.412921
2530.15	0.410945
2539.79	0.414194
2549.43	0.417026
2559.07	0.416332
2568.72	0.417862
2578.36	0.417383
2588	0.41849
2597.64	0.419836
2607.29	0.421473
2616.93	0.421518
2626.57	0.422634
2636.21	0.423546
2645.86	0.424268
2655.5	0.424552
2665.14	0.425018
2674.78	0.425683
2684.43	0.426939
2694.07	0.426603
2703.71	0.427278
2713.35	0.427571
2722.99	0.427418
2732.64	0.429028
2742.28	0.429311
2751.92	0.429041
2761.56	0.429214
2771.21	0.431494
2780.85	0.429198
2790.49	0.431542
2800.13	0.431239
2809.78	0.430464
2819.42	0.431526
2829.06	0.432585
2838.7	0.433107
2848.34	0.432189
2857.99	0.433387
2867.63	0.434317
2877.27	0.434591
2886.91	0.432579
2896.56	0.435219
2906.2	0.43376
2915.84	0.435386
2925.48	0.434915
2935.13	0.435865
2944.77	0.433297
2954.41	0.438203
2964.05	0.437096
2973.7	0.435738
2983.34	0.43582
2992.98	0.434082
3002.62	0.436316
3012.26	0.437073
3021.91	0.435538
3031.55	0.437345
3041.19	0.437849
3050.83	0.440832
3060.48	0.439553
3070.12	0.438535
3079.76	0.441826
3089.4	0.437652
3099.05	0.438216
3108.69	0.439737
3118.33	0.439909
3127.97	0.440328
3137.61	0.442862
3147.26	0.439726
3156.9	0.44209
3166.54	0.444431
3176.18	0.44327
3185.83	0.445878
3195.47	0.446431
3205.11	0.446182
3214.75	0.447917
3224.4	0.44813
3234.04	0.448471
3243.68	0.444935
3253.32	0.446795
3262.97	0.448731
3272.61	0.449905
3282.25	0.451781
3291.89	0.447279
3301.53	0.450299
3311.18	0.448676
3320.82	0.453091
3330.46	0.449918
3340.1	0.451275
3349.75	0.449477
3359.39	0.450145
3369.03	0.449467
3378.67	0.450954
3388.32	0.449241
3397.96	0.44694
3407.6	0.448162
3417.24	0.450483
3426.89	0.449856
3436.53	0.449322
3446.17	0.447952
3455.81	0.446572
3465.45	0.448306
3475.1	0.444729
3484.74	0.451037
3494.38	0.449128
3504.02	0.445836
3513.67	0.446362
3523.31	0.446832
3532.95	0.44397
3542.59	0.443777
3552.24	0.444068
3561.88	0.444944
3571.52	0.444211
3581.16	0.440724
3590.8	0.445179
3600.45	0.442217
3610.09	0.443193
3619.73	0.442954
3629.37	0.445857
3639.02	0.44788
3648.66	0.443893
3658.3	0.447146
3667.94	0.449249
3677.59	0.439153
3687.23	0.440912
3696.87	0.443906
3706.51	0.449723
3716.16	0.443856
3725.8	0.445914
3735.44	0.448737
3745.08	0.448685
3754.72	0.445478
3764.37	0.449958
3774.01	0.444057
3783.65	0.445212
3793.29	0.445355
3802.94	0.446668
3812.58	0.442737
3822.22	0.446313
3831.86	0.445742
3841.51	0.450678
3851.15	0.444527
3860.79	0.44939
3870.43	0.445493
3880.07	0.446838
3889.72	0.444195
3899.36	0.449521
3909	0.447358
3918.64	0.446143
3928.29	0.447459
3937.93	0.448651
3947.57	0.448168
3957.21	0.447581
3966.86	0.445682
3976.5	0.444429
3986.14	0.446273
3995.78	0.449994
