Measurement: Infrared, Infrared Data Processed
Mineral: Sphalerite
Rruff sample: R050140
Ideal chemistry: Zn^2+^S^2-^
Locality: Big Four mine, Summit County, Colorado, USA
Source: Dave Bunk Minerals
Description: Group of dark green tetrahedra
Measured chemistry: Zn_1.00_S_1.00_
x	intensity
399.193	0.00812972
408.835	0.00770025
418.477	0.0136756
428.12	0.0120561
437.762	0.01375
447.404	0.0174143
457.047	0.0214708
466.689	0.0251248
476.331	0.0297692
485.974	0.034355
495.616	0.0365962
505.258	0.0396827
514.901	0.0442268
524.543	0.0474875
534.185	0.0520808
543.828	0.0574373
553.47	0.0623331
563.112	0.0676614
572.755	0.0719074
582.397	0.0757696
592.039	0.079522
601.682	0.0825291
611.324	0.0847846
620.966	0.0875362
630.609	0.0925296
640.251	0.0946337
649.893	0.0941288
659.536	0.0969387
669.178	0.100887
678.82	0.102334
688.463	0.10464
698.105	0.107111
707.747	0.109714
717.39	0.11231
727.032	0.114692
736.674	0.116776
746.317	0.118874
755.959	0.121147
765.601	0.12353
775.244	0.12543
784.886	0.127968
794.528	0.12986
804.171	0.13205
813.813	0.134314
823.455	0.135797
833.098	0.137219
842.74	0.139059
852.382	0.141027
862.025	0.143384
871.667	0.145375
881.309	0.146985
890.952	0.147877
900.594	0.149352
910.236	0.150837
919.879	0.152341
929.521	0.15396
939.163	0.155673
948.806	0.157167
958.448	0.158778
968.09	0.160087
977.733	0.161926
987.375	0.163715
997.017	0.164927
1006.66	0.166321
1016.3	0.167737
1025.94	0.168911
1035.59	0.170517
1045.23	0.172057
1054.87	0.173251
1064.51	0.174865
1074.16	0.175943
1083.8	0.177768
1093.44	0.179057
1103.08	0.180449
1112.72	0.182087
1122.37	0.183117
1132.01	0.184719
1141.65	0.186586
1151.3	0.188099
1160.94	0.188931
1170.58	0.189697
1180.22	0.190463
1189.86	0.191359
1199.51	0.192403
1209.15	0.19313
1218.79	0.193733
1228.43	0.194319
1238.08	0.195345
1247.72	0.19654
1257.36	0.197335
1267	0.19841
1276.64	0.199504
1286.29	0.200487
1295.93	0.201692
1305.57	0.202475
1315.21	0.20367
1324.86	0.204542
1334.5	0.206026
1344.14	0.207001
1353.78	0.208359
1363.43	0.209661
1373.07	0.21067
1382.71	0.211814
1392.35	0.213235
1401.99	0.214781
1411.64	0.216634
1421.28	0.218434
1430.92	0.220035
1440.57	0.220877
1450.21	0.221978
1459.85	0.222562
1469.49	0.22223
1479.13	0.222189
1488.78	0.222588
1498.42	0.223297
1508.06	0.224161
1517.7	0.224557
1527.35	0.225687
1536.99	0.226844
1546.63	0.227868
1556.27	0.22893
1565.91	0.229577
1575.56	0.230449
1585.2	0.230609
1594.84	0.231283
1604.48	0.232336
1614.13	0.233443
1623.77	0.234053
1633.41	0.234964
1643.05	0.23555
1652.7	0.237686
1662.34	0.237575
1671.98	0.238034
1681.62	0.23943
1691.27	0.239978
1700.91	0.241825
1710.55	0.242083
1720.19	0.243585
1729.84	0.244696
1739.48	0.245388
1749.12	0.244584
1758.76	0.245145
1768.4	0.24561
1778.05	0.246821
1787.69	0.247476
1797.33	0.248678
1806.97	0.248768
1816.62	0.249537
1826.26	0.250587
1835.9	0.251846
1845.54	0.252403
1855.18	0.253098
1864.83	0.253872
1874.47	0.254181
1884.11	0.255809
1893.75	0.256021
1903.4	0.257916
1913.04	0.258406
1922.68	0.259319
1932.32	0.259856
1941.97	0.261664
1951.61	0.261559
1961.25	0.263289
1970.89	0.264695
1980.54	0.266993
1990.18	0.266065
1999.82	0.266189
2009.46	0.267572
2019.11	0.267528
2028.75	0.26651
2038.39	0.269199
2048.03	0.270098
2057.67	0.269874
2067.32	0.268372
2076.96	0.271762
2086.6	0.270496
2096.24	0.272392
2105.89	0.27307
2115.53	0.27329
2125.17	0.273366
2134.81	0.273968
2144.45	0.275976
2154.1	0.277295
2163.74	0.279356
2173.38	0.279751
2183.02	0.278608
2192.67	0.279701
2202.31	0.281727
2211.95	0.280805
2221.59	0.283016
2231.24	0.283191
2240.88	0.28484
2250.52	0.284911
2260.16	0.285582
2269.8	0.286159
2279.45	0.285767
2289.09	0.287527
2298.73	0.28682
2308.38	0.287999
2318.02	0.289525
2327.66	0.290059
2337.3	0.291402
2346.94	0.290578
2356.59	0.292354
2366.23	0.293703
2375.87	0.293189
2385.51	0.293051
2395.16	0.293803
2404.8	0.29384
2414.44	0.295129
2424.08	0.295351
2433.72	0.296086
2443.37	0.29713
2453.01	0.297631
2462.65	0.298113
2472.29	0.299349
2481.94	0.298743
2491.58	0.300068
2501.22	0.301414
2510.86	0.300934
2520.51	0.301144
2530.15	0.30303
2539.79	0.30346
2549.43	0.304526
2559.07	0.304658
2568.72	0.306075
2578.36	0.306404
2588	0.307073
2597.64	0.308358
2607.29	0.309469
2616.93	0.309294
2626.57	0.311061
2636.21	0.312148
2645.86	0.312292
2655.5	0.313256
2665.14	0.313802
2674.78	0.314455
2684.43	0.314968
2694.07	0.316547
2703.71	0.316882
2713.35	0.317401
2722.99	0.318848
2732.64	0.318995
2742.28	0.320236
2751.92	0.320782
2761.56	0.321683
2771.21	0.321999
2780.85	0.323093
2790.49	0.323601
2800.13	0.324329
2809.78	0.325561
2819.42	0.327226
2829.06	0.327423
2838.7	0.328799
2848.34	0.32977
2857.99	0.330371
2867.63	0.331326
2877.27	0.330836
2886.91	0.332019
2896.56	0.332972
2906.2	0.333602
2915.84	0.335116
2925.48	0.336045
2935.13	0.335496
2944.77	0.335086
2954.41	0.336563
2964.05	0.335857
2973.7	0.334821
2983.34	0.334808
2992.98	0.335472
3002.62	0.33611
3012.26	0.337476
3021.91	0.338459
3031.55	0.338373
3041.19	0.339589
3050.83	0.340467
3060.48	0.340252
3070.12	0.341026
3079.76	0.342362
3089.4	0.343089
3099.05	0.342991
3108.69	0.344082
3118.33	0.345204
3127.97	0.345977
3137.61	0.347609
3147.26	0.34681
3156.9	0.347395
3166.54	0.349165
3176.18	0.350035
3185.83	0.349486
3195.47	0.351091
3205.11	0.351352
3214.75	0.352389
3224.4	0.352556
3234.04	0.353232
3243.68	0.354022
3253.32	0.354813
3262.97	0.354708
3272.61	0.354444
3282.25	0.356767
3291.89	0.357095
3301.53	0.357985
3311.18	0.357407
3320.82	0.357893
3330.46	0.359553
3340.1	0.360289
3349.75	0.359592
3359.39	0.360738
3369.03	0.361893
3378.67	0.362154
3388.32	0.363108
3397.96	0.362349
3407.6	0.365336
3417.24	0.365465
3426.89	0.367322
3436.53	0.367556
3446.17	0.368789
3455.81	0.368066
3465.45	0.367295
3475.1	0.367486
3484.74	0.369956
3494.38	0.369954
3504.02	0.369963
3513.67	0.372
3523.31	0.373454
3532.95	0.371551
3542.59	0.372928
3552.24	0.374121
3561.88	0.374714
3571.52	0.374226
3581.16	0.376504
3590.8	0.376964
3600.45	0.377791
3610.09	0.37775
3619.73	0.379308
3629.37	0.379783
3639.02	0.380135
3648.66	0.383077
3658.3	0.382191
3667.94	0.382942
3677.59	0.384781
3687.23	0.384834
3696.87	0.385708
3706.51	0.385947
3716.16	0.387221
3725.8	0.387534
3735.44	0.390853
3745.08	0.391812
3754.72	0.389874
3764.37	0.389886
3774.01	0.390614
3783.65	0.391489
3793.29	0.394108
3802.94	0.393357
3812.58	0.39373
3822.22	0.39581
3831.86	0.3965
3841.51	0.397275
3851.15	0.399058
3860.79	0.397449
3870.43	0.4006
3880.07	0.399123
3889.72	0.399061
3899.36	0.402778
3909	0.402962
3918.64	0.40303
3928.29	0.405583
3937.93	0.40367
3947.57	0.403401
3957.21	0.40548
3966.86	0.406018
3976.5	0.406616
3986.14	0.406672
3995.78	0.408666
