Measurement: Infrared, Infrared Data Processed
Mineral: Sphalerite
Rruff sample: R050140
Ideal chemistry: Zn^2+^S^2-^
Locality: Big Four mine, Summit County, Colorado, USA
Source: Dave Bunk Minerals
Description: Group of dark green tetrahedra
Measured chemistry: Zn_1.00_S_1.00_
x	intensity
50.1401	0.00562997
52.0686	0.00410473
53.9971	0.00309124
55.9255	0.00521875
57.854	0.0064705
59.7825	0.00463059
61.7109	0.00376529
63.6394	0.0046096
65.5679	0.00621807
67.4963	0.00785769
69.4248	0.00976095
71.3533	0.0104517
73.2817	0.0102375
75.2102	0.00970762
77.1387	0.00959687
79.0671	0.0105444
80.9956	0.0107837
82.9241	0.0117529
84.8525	0.0129801
86.781	0.0123594
88.7095	0.0117361
90.6379	0.0132287
92.5664	0.014003
94.4948	0.0134662
96.4233	0.0145406
98.3518	0.0155792
100.28	0.0155211
102.209	0.0150249
104.137	0.0150684
106.066	0.0158164
107.994	0.0156719
109.923	0.0154351
111.851	0.0158311
113.779	0.01639
115.708	0.0168999
117.636	0.0173723
119.565	0.0178084
121.493	0.0187171
123.422	0.0194471
125.35	0.0199096
127.279	0.0203543
129.207	0.0209501
131.136	0.021576
133.064	0.0221159
134.993	0.0223814
136.921	0.0225671
138.85	0.0229646
140.778	0.023544
142.707	0.0239753
144.635	0.0245074
146.563	0.0247731
148.492	0.0249765
150.42	0.0251329
152.349	0.0263
154.277	0.0264749
156.206	0.0263546
158.134	0.0267065
160.063	0.0271416
161.991	0.0278434
163.92	0.0281563
165.848	0.0282208
167.777	0.0286677
169.705	0.0292598
171.633	0.0296229
173.562	0.0299858
175.49	0.0304926
177.419	0.0305725
179.347	0.0305771
181.276	0.0311788
183.204	0.0318919
185.133	0.0323293
187.061	0.0325598
188.99	0.0324669
190.918	0.0328799
192.847	0.0335732
194.775	0.0336611
196.704	0.0335782
198.632	0.0343188
200.56	0.0351923
202.489	0.0358738
204.417	0.0360473
206.346	0.0363571
208.274	0.0366699
210.203	0.0370381
212.131	0.0370452
214.06	0.0369935
215.988	0.0368192
217.917	0.036784
219.845	0.0370648
221.774	0.0373416
223.702	0.0374056
225.631	0.0376967
227.559	0.0382645
229.488	0.0391068
231.416	0.0400215
233.344	0.0406926
235.273	0.0413238
237.201	0.0423957
239.13	0.0434165
241.058	0.0441391
242.987	0.0449934
244.915	0.046106
246.844	0.0471109
248.772	0.04814
250.701	0.0490852
252.629	0.0501689
254.558	0.0517049
256.486	0.0533547
258.414	0.0544817
260.343	0.0546926
262.271	0.0542593
264.2	0.0541441
266.128	0.0543351
268.057	0.0548497
269.985	0.0552024
271.914	0.0556953
273.842	0.0562307
275.771	0.0569339
277.699	0.0573125
279.628	0.0574737
281.556	0.0580083
283.485	0.0580906
285.413	0.0576307
287.341	0.0574554
289.27	0.0571984
291.198	0.0571999
293.127	0.0568875
295.055	0.0558461
296.984	0.0548257
298.912	0.0540228
300.841	0.0532438
302.769	0.0523146
304.698	0.0511732
306.626	0.0501171
308.555	0.0486161
310.483	0.0473191
312.411	0.0462107
314.34	0.044702
316.269	0.0428849
318.197	0.041045
320.125	0.0391924
322.054	0.0375359
323.982	0.0356973
325.911	0.0336079
327.839	0.0316178
329.768	0.0297405
331.696	0.0281055
333.625	0.0266061
335.553	0.0252498
337.482	0.0241295
339.41	0.0226253
341.339	0.0207817
343.267	0.0184894
345.195	0.0163185
347.124	0.0143822
349.052	0.013216
350.981	0.0124093
352.909	0.0115928
354.838	0.011493
356.766	0.011496
358.695	0.0114874
360.623	0.0119328
362.552	0.0126805
364.48	0.0132979
366.409	0.0139286
368.337	0.0144526
370.265	0.0144295
372.194	0.0141796
374.122	0.0140954
376.051	0.013872
377.979	0.0139487
379.908	0.0143876
381.836	0.0143874
383.765	0.014108
385.693	0.0140301
387.622	0.0141116
389.55	0.0140967
391.479	0.0139805
393.407	0.0139674
395.336	0.0142201
397.264	0.0144016
399.192	0.0145483
401.121	0.01472
403.049	0.0149726
404.978	0.0152058
406.906	0.015509
408.835	0.0158142
410.763	0.0160918
412.692	0.0165126
414.62	0.0170244
416.549	0.0175281
418.477	0.0181109
420.406	0.0185979
422.334	0.0187009
424.262	0.0190423
426.191	0.0195428
428.12	0.0201732
430.048	0.0210348
431.976	0.0219435
433.905	0.0227642
435.833	0.0235751
437.762	0.0243261
439.69	0.0247542
441.619	0.0251275
443.547	0.0255221
445.476	0.0257359
447.404	0.0258849
449.333	0.0259057
451.261	0.0258314
453.19	0.02572
455.118	0.0254497
457.046	0.0252631
458.975	0.0250698
460.903	0.0250325
462.832	0.0250526
464.76	0.0249257
466.689	0.0249771
468.617	0.0251236
470.546	0.0252426
472.474	0.0253559
474.403	0.0257286
476.331	0.0262645
478.26	0.0268101
480.188	0.027225
482.116	0.0278312
484.045	0.0283166
485.974	0.0286069
487.902	0.0292452
489.83	0.0301718
491.759	0.0313635
493.687	0.0322718
495.616	0.0332896
497.544	0.0337086
499.473	0.0333387
501.401	0.0326364
503.33	0.0315365
505.258	0.0309857
507.187	0.0313109
509.115	0.0319442
511.043	0.0324447
512.972	0.03276
514.9	0.0335729
516.829	0.0348219
518.757	0.0361242
520.686	0.0370122
522.614	0.0373753
524.543	0.0378414
526.471	0.0379902
528.4	0.0380615
530.328	0.0380666
532.257	0.0381145
534.185	0.0382804
536.114	0.038253
538.042	0.038144
539.971	0.0377634
541.899	0.0373714
543.827	0.0368331
545.756	0.0363217
547.684	0.0359798
549.613	0.0357466
551.541	0.0356641
553.47	0.0352261
555.398	0.0346469
557.327	0.0345452
559.255	0.0342202
561.184	0.0336938
563.112	0.0337346
565.041	0.0340127
566.969	0.0341328
568.898	0.0337816
570.826	0.0339371
572.755	0.0345188
574.683	0.0348242
576.611	0.0352104
578.54	0.0354795
580.468	0.0357945
582.397	0.0363257
584.325	0.0372157
586.254	0.038381
588.182	0.0398419
590.111	0.0408461
592.039	0.0412168
593.968	0.0412989
595.896	0.0408683
597.824	0.0401438
599.753	0.0390604
601.682	0.0374306
603.61	0.0364458
605.538	0.0355501
607.467	0.0342377
609.395	0.0338396
611.324	0.0340539
613.252	0.0340474
615.181	0.0340017
617.109	0.0337324
619.038	0.0342845
620.966	0.034657
622.894	0.0349092
624.823	0.035903
626.751	0.0368889
628.68	0.0383371
630.608	0.0397652
632.537	0.0404923
634.465	0.0406063
636.394	0.0407829
638.322	0.0411561
640.251	0.0413527
642.179	0.0417375
644.108	0.0424387
646.036	0.0427087
647.965	0.0430126
649.893	0.0438351
651.822	0.0446581
653.75	0.0453654
655.678	0.0457098
657.607	0.0454365
659.535	0.0453724
661.464	0.0456545
663.392	0.0463829
665.321	0.047094
667.249	0.0480627
669.178	0.0489364
671.106	0.0493367
673.035	0.0502194
674.963	0.051568
676.892	0.053246
678.82	0.0546782
680.749	0.0555344
682.677	0.0559242
684.606	0.0559906
686.534	0.056067
688.462	0.0558784
690.391	0.0550101
692.319	0.0544141
694.248	0.0543322
696.176	0.0549906
698.105	0.0545041
700.033	0.0539707
