Measurement: Infrared, Infrared Data Processed
Mineral: Spinel
Rruff sample: R050411
Ideal chemistry: MgAl_2_O_4_
Locality: Mogok, Burma
Source: Marcus Origlieri
Description: Pale pink gemstone
Measured chemistry: Mg_0.93_Al_2.04_O_4_
x	intensity
399.193	0.34573
408.835	0.382509
418.477	0.365379
428.12	0.368872
437.762	0.369808
447.404	0.381303
457.047	0.366804
466.689	0.354486
476.331	0.33699
485.974	0.328957
495.616	0.316522
505.258	0.300996
514.901	0.279199
524.543	0.258679
534.185	0.238347
543.828	0.213661
553.47	0.194842
563.112	0.179585
572.755	0.180347
582.397	0.181029
592.039	0.148313
601.682	0.128592
611.324	0.118347
620.966	0.129935
630.609	0.178574
640.251	0.273247
649.893	0.350237
659.536	0.365837
669.178	0.340812
678.82	0.304486
688.463	0.265424
698.105	0.227141
707.747	0.198938
717.39	0.176814
727.032	0.158053
736.674	0.141943
746.317	0.127713
755.959	0.115749
765.601	0.105827
775.244	0.097108
784.886	0.089366
794.528	0.0834359
804.171	0.0772877
813.813	0.0711896
823.455	0.0636694
833.098	0.0542695
842.74	0.0455067
852.382	0.0374721
862.025	0.031088
871.667	0.0265252
881.309	0.0229732
890.952	0.0199467
900.594	0.0180362
910.236	0.0162762
919.879	0.0147933
929.521	0.0137475
939.163	0.0129607
948.806	0.0123321
958.448	0.0115554
968.09	0.0108091
977.733	0.0106001
987.375	0.0104315
997.017	0.0106071
1006.66	0.0105822
1016.3	0.00994925
1025.94	0.00948158
1035.59	0.00880432
1045.23	0.00867836
1054.87	0.00844868
1064.51	0.00769316
1074.16	0.00821462
1083.8	0.00779087
1093.44	0.00727778
1103.08	0.00718925
1112.72	0.00680251
1122.37	0.00671439
1132.01	0.00635121
1141.65	0.00625642
1151.3	0.00589711
1160.94	0.00558936
1170.58	0.00508267
1180.22	0.00541936
1189.86	0.00500866
1199.51	0.00485376
1209.15	0.0048817
1218.79	0.00465449
1228.43	0.00475714
1238.08	0.00477788
1247.72	0.00468576
1257.36	0.00430783
1267	0.00488583
1276.64	0.00494128
1286.29	0.00495663
1295.93	0.00499036
1305.57	0.00530719
1315.21	0.00560914
1324.86	0.00548604
1334.5	0.0063471
1344.14	0.00672702
1353.78	0.00793447
1363.43	0.00907494
1373.07	0.0105862
1382.71	0.0126212
1392.35	0.0148208
1401.99	0.0170166
1411.64	0.0185063
1421.28	0.0194468
1430.92	0.0199067
1440.57	0.0196772
1450.21	0.019433
1459.85	0.0192102
1469.49	0.0191474
1479.13	0.0189605
1488.78	0.0193906
1498.42	0.0183251
1508.06	0.0180228
1517.7	0.0175315
1527.35	0.0168284
1536.99	0.0158133
1546.63	0.0148375
1556.27	0.0141013
1565.91	0.0130892
1575.56	0.0121156
1585.2	0.0112576
1594.84	0.0110145
1604.48	0.0107871
1614.13	0.00999812
1623.77	0.0100129
1633.41	0.00993912
1643.05	0.00999895
1652.7	0.0097718
1662.34	0.00986433
1671.98	0.0093198
1681.62	0.00899731
1691.27	0.00903869
1700.91	0.00875526
1710.55	0.00850127
1720.19	0.00835314
1729.84	0.00827762
1739.48	0.00719751
1749.12	0.0069717
1758.76	0.00798304
1768.4	0.00835632
1778.05	0.00826878
1787.69	0.00904338
1797.33	0.00952807
1806.97	0.00917921
1816.62	0.00874182
1826.26	0.00998088
1835.9	0.0100494
1845.54	0.010206
1855.18	0.00980813
1864.83	0.00979363
1874.47	0.00958481
1884.11	0.0107306
1893.75	0.0094962
1903.4	0.0106087
1913.04	0.0104308
1922.68	0.0113515
1932.32	0.0107659
1941.97	0.00986587
1951.61	0.00873194
1961.25	0.0121432
1970.89	0.0123897
1980.54	0.0130612
1990.18	0.0136742
1999.82	0.0119229
2009.46	0.011904
2019.11	0.0150331
2028.75	0.0147306
2038.39	0.0137796
2048.03	0.0145264
2057.67	0.0139234
2067.32	0.0139493
2076.96	0.0134675
2086.6	0.0150318
2096.24	0.0131877
2105.89	0.01353
2115.53	0.0164753
2125.17	0.0119629
2134.81	0.0116118
2144.45	0.013843
2154.1	0.00972793
2163.74	0.0185391
2173.38	0.0145375
2183.02	0.0160692
2192.67	0.0149999
2202.31	0.0153346
2211.95	0.0141314
2221.59	0.0165627
2231.24	0.0177553
2240.88	0.0159656
2250.52	0.0156771
2260.16	0.0172362
2269.8	0.018709
2279.45	0.0178065
2289.09	0.0179128
2298.73	0.0177554
2308.38	0.0174011
2318.02	0.0177862
2327.66	0.0176746
2337.3	0.0164374
2346.94	0.0176282
2356.59	0.0160056
2366.23	0.0165703
2375.87	0.0163859
2385.51	0.0172785
2395.16	0.0172847
2404.8	0.0175283
2414.44	0.0168959
2424.08	0.0176377
2433.72	0.0185273
2443.37	0.0174788
2453.01	0.0185602
2462.65	0.0195316
2472.29	0.0174036
2481.94	0.0181682
2491.58	0.0193498
2501.22	0.0187001
2510.86	0.0194103
2520.51	0.0183285
2530.15	0.0197836
2539.79	0.0203098
2549.43	0.0191765
2559.07	0.0206134
2568.72	0.0210814
2578.36	0.0193653
2588	0.0197022
2597.64	0.021131
2607.29	0.0212273
2616.93	0.0226119
2626.57	0.0216178
2636.21	0.0220465
2645.86	0.0213788
2655.5	0.021438
2665.14	0.0198155
2674.78	0.0210763
2684.43	0.0211905
2694.07	0.0210636
2703.71	0.0214883
2713.35	0.020709
2722.99	0.0221884
2732.64	0.0223369
2742.28	0.0222799
2751.92	0.0217978
2761.56	0.022918
2771.21	0.0222415
2780.85	0.0235487
2790.49	0.0218917
2800.13	0.0228225
2809.78	0.0225544
2819.42	0.0234882
2829.06	0.0230611
2838.7	0.0227898
2848.34	0.0220003
2857.99	0.0213555
2867.63	0.0243449
2877.27	0.0242839
2886.91	0.0232616
2896.56	0.0221679
2906.2	0.0227525
2915.84	0.0212664
2925.48	0.0200326
2935.13	0.0229597
2944.77	0.0235912
2954.41	0.024594
2964.05	0.0247626
2973.7	0.0261279
2983.34	0.0257939
2992.98	0.0258577
3002.62	0.0261645
3012.26	0.0264298
3021.91	0.0284218
3031.55	0.0285094
3041.19	0.0269172
3050.83	0.027329
3060.48	0.0270695
3070.12	0.0298525
3079.76	0.0291382
3089.4	0.0300996
3099.05	0.0279276
3108.69	0.0298337
3118.33	0.0300852
3127.97	0.0302119
3137.61	0.0314262
3147.26	0.0313425
3156.9	0.0312139
3166.54	0.0308911
3176.18	0.0340687
3185.83	0.0338669
3195.47	0.0315251
3205.11	0.031479
3214.75	0.0336762
3224.4	0.0316253
3234.04	0.0348404
3243.68	0.0338454
3253.32	0.0343744
3262.97	0.0346806
3272.61	0.0347832
3282.25	0.0353681
3291.89	0.0357323
3301.53	0.0348751
3311.18	0.0354062
3320.82	0.03622
3330.46	0.0375565
3340.1	0.0351661
3349.75	0.0397727
3359.39	0.038003
3369.03	0.0375373
3378.67	0.0395001
3388.32	0.0366856
3397.96	0.0377514
3407.6	0.0411961
3417.24	0.0384482
3426.89	0.0397598
3436.53	0.0382523
3446.17	0.0368855
3455.81	0.0398933
3465.45	0.0382531
3475.1	0.037322
3484.74	0.037686
3494.38	0.038609
3504.02	0.0380361
3513.67	0.036188
3523.31	0.0340596
3532.95	0.037991
3542.59	0.0367744
3552.24	0.0412898
3561.88	0.0352277
3571.52	0.0375598
3581.16	0.0362731
3590.8	0.0334272
3600.45	0.0373427
3610.09	0.0343545
3619.73	0.0316522
3629.37	0.0297316
3639.02	0.0347882
3648.66	0.0360717
3658.3	0.0278409
3667.94	0.033145
3677.59	0.0311064
3687.23	0.035027
3696.87	0.0323741
3706.51	0.0331035
3716.16	0.0347077
3725.8	0.0321822
3735.44	0.032198
3745.08	0.0311597
3754.72	0.0336056
3764.37	0.0341155
3774.01	0.0349004
3783.65	0.0301191
3793.29	0.0348779
3802.94	0.0375558
3812.58	0.0359254
3822.22	0.0363844
3831.86	0.0356611
3841.51	0.0334422
3851.15	0.0371954
3860.79	0.0352643
3870.43	0.0307966
3880.07	0.0341975
3889.72	0.0325356
3899.36	0.0357423
3909	0.034695
3918.64	0.0316836
3928.29	0.0350962
3937.93	0.0371013
3947.57	0.0349356
3957.21	0.040423
3966.86	0.0356847
3976.5	0.0366272
3986.14	0.0342959
3995.78	0.0386487
