Measurement: Infrared, Infrared Data Processed
Mineral: Spinel
Rruff sample: R050184
Ideal chemistry: MgAl_2_O_4_
Locality: Pein Pyit, Mogok, Burma
Source: Marcus Origlieri
Description: Red crystal in calcite, associated with yellowish-green clinohumite, R050183
Measured chemistry: Mg_1.00_(Al_1.99_Cr_0.01_)_Î£=2_O_4_; trace amounts of V
x	intensity
372.194	0
381.836	0.330796
391.479	0.331784
401.121	0.326882
410.763	0.334655
420.406	0.34038
430.048	0.339773
439.69	0.34363
449.333	0.343264
458.975	0.339506
468.617	0.326032
478.26	0.311485
487.902	0.309395
497.544	0.30454
507.187	0.292286
516.829	0.275247
526.471	0.253349
536.114	0.230605
545.756	0.207712
555.398	0.188671
565.041	0.171698
574.683	0.178679
584.325	0.161388
593.968	0.130708
603.61	0.111051
613.252	0.100658
622.895	0.114511
632.537	0.169248
642.179	0.252889
651.822	0.309343
661.464	0.31673
671.106	0.299233
680.749	0.273546
690.391	0.241162
700.033	0.209402
709.676	0.185113
719.318	0.165961
728.96	0.148085
738.603	0.132224
748.245	0.118644
757.887	0.106303
767.53	0.0961286
777.172	0.0870355
786.814	0.0797751
796.457	0.0736549
806.099	0.0673908
815.741	0.0614313
825.384	0.0535196
835.026	0.0447129
844.668	0.0362828
854.311	0.029072
863.953	0.0237328
873.595	0.019933
883.238	0.0169784
892.88	0.0143637
902.522	0.0127581
912.165	0.01141
921.807	0.0101441
931.449	0.0089815
941.092	0.00847944
950.734	0.00802754
960.376	0.00761047
970.019	0.00730706
979.661	0.0068459
989.303	0.00686135
998.946	0.00679002
1008.59	0.00661485
1018.23	0.00640881
1027.87	0.00597337
1037.52	0.00571922
1047.16	0.0054242
1056.8	0.00514669
1066.44	0.00482656
1076.08	0.00441794
1085.73	0.00453815
1095.37	0.00409671
1105.01	0.00390581
1114.65	0.00372041
1124.3	0.00376543
1133.94	0.00378103
1143.58	0.00349983
1153.22	0.00320263
1162.87	0.00311437
1172.51	0.00283585
1182.15	0.00272637
1191.79	0.00268068
1201.43	0.00252798
1211.08	0.00254851
1220.72	0.0026605
1230.36	0.00252756
1240	0.00251674
1249.65	0.00254638
1259.29	0.00228129
1268.93	0.00250698
1278.57	0.00261145
1288.22	0.00285205
1297.86	0.0028558
1307.5	0.0029257
1317.14	0.00304849
1326.79	0.00324333
1336.43	0.00337486
1346.07	0.00376754
1355.71	0.00417876
1365.35	0.00411605
1375	0.00461159
1384.64	0.00510686
1394.28	0.00654942
1403.92	0.00793438
1413.57	0.00951022
1423.21	0.0110413
1432.85	0.0117654
1442.49	0.0121006
1452.13	0.012304
1461.78	0.0121172
1471.42	0.0118449
1481.06	0.0114966
1490.7	0.0103811
1500.35	0.00934404
1509.99	0.00849185
1519.63	0.00784861
1529.27	0.00792015
1538.92	0.00788252
1548.56	0.00797745
1558.2	0.00799232
1567.84	0.00825276
1577.49	0.00856582
1587.13	0.00857771
1596.77	0.00868024
1606.41	0.00838526
1616.06	0.00781091
1625.7	0.00769576
1635.34	0.00754992
1644.98	0.00756574
1654.62	0.00722898
1664.27	0.00705079
1673.91	0.00665105
1683.55	0.00680196
1693.19	0.00645477
1702.84	0.00638994
1712.48	0.00603526
1722.12	0.005862
1731.76	0.00531973
1741.4	0.00492777
1751.05	0.00522128
1760.69	0.00604174
1770.33	0.00631012
1779.97	0.00656685
1789.62	0.00646675
1799.26	0.00696202
1808.9	0.00679702
1818.54	0.00693226
1828.19	0.00707499
1837.83	0.00700897
1847.47	0.0072532
1857.11	0.00767929
1866.76	0.00772878
1876.4	0.00731822
1886.04	0.00775456
1895.68	0.00789579
1905.33	0.00847339
1914.97	0.00790584
1924.61	0.00768959
1934.25	0.00745494
1943.89	0.00946685
1953.54	0.00745665
1963.18	0.0087916
1972.82	0.00939212
1982.46	0.0119428
1992.11	0.0105451
2001.75	0.00879908
2011.39	0.0103445
2021.03	0.00903316
2030.67	0.0108311
2040.32	0.0110028
2049.96	0.0122262
2059.6	0.010697
2069.24	0.0112816
2078.89	0.0116738
2088.53	0.0111447
2098.17	0.0104035
2107.81	0.0102995
2117.46	0.0106778
2127.1	0.00920948
2136.74	0.0100243
2146.38	0.00891939
2156.03	0.00841284
2165.67	0.0148966
2175.31	0.0122087
2184.95	0.0139674
2194.59	0.0132766
2204.24	0.0120358
2213.88	0.0119841
2223.52	0.0127128
2233.16	0.0125493
2242.81	0.0126165
2252.45	0.0120403
2262.09	0.0127549
2271.73	0.0140413
2281.38	0.0136089
2291.02	0.0137269
2300.66	0.0131517
2310.3	0.0129463
2319.95	0.013562
2329.59	0.0122332
2339.23	0.0121349
2348.87	0.0123998
2358.51	0.0121789
2368.16	0.011962
2377.8	0.0120752
2387.44	0.0121345
2397.08	0.0120863
2406.73	0.0127026
2416.37	0.0127208
2426.01	0.0128752
2435.65	0.0134132
2445.3	0.0133693
2454.94	0.0130853
2464.58	0.0133599
2474.22	0.0133923
2483.86	0.0130766
2493.51	0.0132685
2503.15	0.0133527
2512.79	0.0131619
2522.43	0.0133372
2532.08	0.0139758
2541.72	0.0138809
2551.36	0.0137141
2561	0.0146691
2570.65	0.0150579
2580.29	0.0147239
2589.93	0.015299
2599.57	0.0150711
2609.22	0.0151801
2618.86	0.0157048
2628.5	0.0156394
2638.14	0.0153508
2647.78	0.015774
2657.43	0.0149827
2667.07	0.0141179
2676.71	0.0147176
2686.35	0.0146133
2696	0.0146035
2705.64	0.0149628
2715.28	0.0150328
2724.92	0.0151225
2734.57	0.0147284
2744.21	0.0155096
2753.85	0.0153386
2763.49	0.0151033
2773.14	0.0155315
2782.78	0.0156534
2792.42	0.0154536
2802.06	0.015856
2811.7	0.0156361
2821.35	0.0154354
2830.99	0.0156376
2840.63	0.0155372
2850.27	0.0127458
2859.92	0.0136074
2869.56	0.0144294
2879.2	0.0151952
2888.84	0.0151527
2898.49	0.0144989
2908.13	0.0139794
2917.77	0.0113296
2927.41	0.0107907
2937.05	0.0128066
2946.7	0.014794
2956.34	0.0149427
2965.98	0.0156521
2975.62	0.0165978
2985.27	0.0173296
2994.91	0.0167996
3004.55	0.0171892
3014.19	0.0173403
3023.84	0.0170301
3033.48	0.0170691
3043.12	0.0180996
3052.76	0.0179588
3062.41	0.0185946
3072.05	0.0184527
3081.69	0.0185404
3091.33	0.0187122
3100.97	0.0194448
3110.62	0.019879
3120.26	0.0192139
3129.9	0.0205016
3139.54	0.0202587
3149.19	0.0204543
3158.83	0.0208802
3168.47	0.0203338
3178.11	0.0207594
3187.76	0.021014
3197.4	0.0213321
3207.04	0.0213512
3216.68	0.0210802
3226.32	0.0214375
3235.97	0.0210287
3245.61	0.0215768
3255.25	0.0222834
3264.89	0.0224702
3274.54	0.0221947
3284.18	0.023221
3293.82	0.0222534
3303.46	0.0223514
3313.11	0.0223875
3322.75	0.0221412
3332.39	0.0226614
3342.03	0.0222525
3351.68	0.0231359
3361.32	0.0233415
3370.96	0.0231844
3380.6	0.0241537
3390.24	0.0232083
3399.89	0.0231547
3409.53	0.0236365
3419.17	0.0233808
3428.81	0.022738
3438.46	0.0231617
3448.1	0.0226882
3457.74	0.0228075
3467.38	0.023365
3477.03	0.0235358
3486.67	0.0228011
3496.31	0.0223091
3505.95	0.0219192
3515.59	0.0224878
3525.24	0.0218203
3534.88	0.0220442
3544.52	0.0218601
3554.16	0.0213606
3563.81	0.0216645
3573.45	0.0206473
3583.09	0.0208496
3592.73	0.0212517
3602.38	0.0200774
3612.02	0.0196735
3621.66	0.0186564
3631.3	0.0198176
3640.95	0.0196564
3650.59	0.0195577
3660.23	0.01833
3669.87	0.0201101
3679.51	0.0187692
3689.16	0.0182343
3698.8	0.0191185
3708.44	0.0199332
3718.08	0.0195563
3727.73	0.0198977
3737.37	0.019531
3747.01	0.0196247
3756.65	0.0208178
3766.3	0.0199563
3775.94	0.0196244
3785.58	0.0200084
3795.22	0.0198909
3804.86	0.0191641
3814.51	0.0192242
3824.15	0.0201761
3833.79	0.0189534
3843.43	0.0194971
3853.08	0.0192245
3862.72	0.0201957
3872.36	0.0192932
3882	0.0199449
3891.65	0.0194276
3901.29	0.0195856
3910.93	0.0199203
3920.57	0.0197597
3930.22	0.0192018
3939.86	0.0190868
3949.5	0.0201845
3959.14	0.0189103
3968.78	0.0205433
3978.43	0.0203982
3988.07	0.0201715
3997.71	0.0192366
