Measurement: Infrared, Infrared Data Processed
Mineral: Spodumene
Rruff sample: R050252
Ideal chemistry: LiAlSi_2_O_6_
Locality: Minas Gerais, Brazil
Source: Marcus Origlieri
Description: Pale lavendar cleavage fragment
Measured chemistry: Li_1.00_Al_1.00_Si_2.00_O_6_
x	intensity
372.194	0
381.836	0.151954
391.479	0.172489
401.121	0.19899
410.763	0.158244
420.406	0.205694
430.048	0.252782
439.69	0.275877
449.333	0.278416
458.975	0.267455
468.617	0.255778
478.26	0.231791
487.902	0.204349
497.544	0.183474
507.187	0.161204
516.829	0.146773
526.471	0.150044
536.114	0.140835
545.756	0.121573
555.398	0.102875
565.041	0.120094
574.683	0.148162
584.325	0.153242
593.968	0.146951
603.61	0.131798
613.252	0.116533
622.895	0.108294
632.537	0.107951
642.179	0.103581
651.822	0.0832604
661.464	0.0584241
671.106	0.0436822
680.749	0.0354936
690.391	0.0329726
700.033	0.0323244
709.676	0.0326096
719.318	0.0328678
728.96	0.0334843
738.603	0.0344847
748.245	0.0357659
757.887	0.0375412
767.53	0.0404843
777.172	0.044314
786.814	0.048669
796.457	0.0545831
806.099	0.0621411
815.741	0.0728959
825.384	0.0893155
835.026	0.114354
844.668	0.151701
854.311	0.192785
863.953	0.181339
873.595	0.166043
883.238	0.184245
892.88	0.204612
902.522	0.217229
912.165	0.219977
921.807	0.211862
931.449	0.193845
941.092	0.170397
950.734	0.14939
960.376	0.136531
970.019	0.134231
979.661	0.145611
989.303	0.171505
998.946	0.210798
1008.59	0.255939
1018.23	0.280461
1027.87	0.272738
1037.52	0.25473
1047.16	0.234973
1056.8	0.223837
1066.44	0.222588
1076.08	0.216118
1085.73	0.210363
1095.37	0.177669
1105.01	0.141624
1114.65	0.116547
1124.3	0.101477
1133.94	0.0946433
1143.58	0.0891824
1153.22	0.0817105
1162.87	0.0712362
1172.51	0.057707
1182.15	0.0418371
1191.79	0.0277139
1201.43	0.0168591
1211.08	0.0102277
1220.72	0.00695764
1230.36	0.00486066
1240	0.00354598
1249.65	0.00248533
1259.29	0.00187264
1268.93	0.00141358
1278.57	0.00113294
1288.22	0.00107742
1297.86	0.000763007
1307.5	0.00085767
1317.14	0.00085209
1326.79	0.000633519
1336.43	0.000512781
1346.07	0.000376743
1355.71	0.000498938
1365.35	0.000366253
1375	0.00039532
1384.64	0.000444085
1394.28	0.000723571
1403.92	0.00079822
1413.57	0.00082751
1423.21	0.000957863
1432.85	0.000683874
1442.49	0.000599976
1452.13	0.000351838
1461.78	0.000154286
1471.42	-3.27878e-06
1481.06	0.000470401
1490.7	0.000385137
1500.35	0.000347895
1509.99	0.000420474
1519.63	0.000393161
1529.27	0.000611087
1538.92	0.000358006
1548.56	0.000705293
1558.2	0.000809238
1567.84	0.00123311
1577.49	0.00138078
1587.13	0.00162435
1596.77	0.00198413
1606.41	0.00216724
1616.06	0.00212744
1625.7	0.00262223
1635.34	0.00277876
1644.98	0.00294929
1654.62	0.00229805
1664.27	0.00204919
1673.91	0.00140468
1683.55	0.00133143
1693.19	0.00103404
1702.84	0.00093398
1712.48	0.000583587
1722.12	0.000130629
1731.76	-0.000297032
1741.4	-0.000684733
1751.05	-0.000512681
1760.69	0.000492998
1770.33	0.000904409
1779.97	0.00107755
1789.62	0.000945911
1799.26	0.0013374
1808.9	0.000793597
1818.54	0.000704456
1828.19	0.000340985
1837.83	0.000272548
1847.47	0.000484537
1857.11	0.000758218
1866.76	0.00053036
1876.4	0.000448619
1886.04	-9.56092e-05
1895.68	-1.50183e-05
1905.33	0.000498945
1914.97	-0.000127269
1924.61	-0.000449931
1934.25	-0.000695175
1943.89	0.000105448
1953.54	-0.0005735
1963.18	-7.77575e-05
1972.82	0.000606882
1982.46	0.000895917
1992.11	0.0012752
2001.75	-7.9649e-06
2011.39	0.000410662
2021.03	-0.00165589
2030.67	-0.000410162
2040.32	-0.000108127
2049.96	0.000815754
2059.6	-0.000845376
2069.24	0.000537706
2078.89	-0.000184184
2088.53	-0.000482918
2098.17	9.4855e-05
2107.81	5.92645e-05
2117.46	8.26056e-05
2127.1	-0.00146249
2136.74	-0.000769146
2146.38	-0.00189677
2156.03	-0.00108968
2165.67	0.00097043
2175.31	-0.000497373
2184.95	0.00249606
2194.59	0.00151276
2204.24	0.00132589
2213.88	0.00212661
2223.52	0.00227972
2233.16	0.00244283
2242.81	0.00188322
2252.45	0.00253849
2262.09	0.00146646
2271.73	0.00272966
2281.38	0.00268801
2291.02	0.00271816
2300.66	0.00201948
2310.3	0.00162399
2319.95	0.00271858
2329.59	0.00233929
2339.23	0.00236896
2348.87	0.00157766
2358.51	0.00264995
2368.16	0.00273981
2377.8	0.00204533
2387.44	0.00209687
2397.08	0.00186848
2406.73	0.00258541
2416.37	0.00267134
2426.01	0.00315442
2435.65	0.00303949
2445.3	0.00374291
2454.94	0.00338881
2464.58	0.00307143
2474.22	0.00363518
2483.86	0.00296612
2493.51	0.00366749
2503.15	0.00332052
2512.79	0.00360454
2522.43	0.00305198
2532.08	0.00330584
2541.72	0.00358578
2551.36	0.00341948
2561	0.00418275
2570.65	0.0040451
2580.29	0.00431313
2589.93	0.00452617
2599.57	0.0040666
2609.22	0.00438155
2618.86	0.00474796
2628.5	0.00492084
2638.14	0.00429329
2647.78	0.00474107
2657.43	0.00426924
2667.07	0.0031079
2676.71	0.00387817
2686.35	0.00363211
2696	0.00349757
2705.64	0.00366636
2715.28	0.00362502
2724.92	0.00408146
2734.57	0.00357197
2744.21	0.00398802
2753.85	0.00407554
2763.49	0.00431742
2773.14	0.00442592
2782.78	0.00446853
2792.42	0.00390684
2802.06	0.00458378
2811.7	0.00481138
2821.35	0.00437104
2830.99	0.00432407
2840.63	0.00380444
2850.27	0.000931777
2859.92	0.00160444
2869.56	0.00300725
2879.2	0.00347533
2888.84	0.00379015
2898.49	0.0031219
2908.13	0.00183129
2917.77	-0.0011859
2927.41	-0.00201571
2937.05	0.00111161
2946.7	0.00299142
2956.34	0.0034068
2965.98	0.00434856
2975.62	0.00527585
2985.27	0.00586955
2994.91	0.00569939
3004.55	0.0060434
3014.19	0.00489287
3023.84	0.00611169
3033.48	0.00608297
3043.12	0.00658504
3052.76	0.00632442
3062.41	0.00669257
3072.05	0.00760074
3081.69	0.00676676
3091.33	0.00767569
3100.97	0.00786991
3110.62	0.00855861
3120.26	0.00794448
3129.9	0.00918166
3139.54	0.0091828
3149.19	0.00928652
3158.83	0.00958387
3168.47	0.00936586
3178.11	0.00983673
3187.76	0.00998441
3197.4	0.0112291
3207.04	0.0107153
3216.68	0.0110301
3226.32	0.010902
3235.97	0.0110181
3245.61	0.0110223
3255.25	0.0116968
3264.89	0.0113917
3274.54	0.0119078
3284.18	0.0119086
3293.82	0.012507
3303.46	0.0117918
3313.11	0.0129356
3322.75	0.0121307
3332.39	0.0125113
3342.03	0.0125535
3351.68	0.0126382
3361.32	0.0141355
3370.96	0.0133087
3380.6	0.014111
3390.24	0.013506
3399.89	0.0129121
3409.53	0.0133452
3419.17	0.0130308
3428.81	0.0124395
3438.46	0.0121569
3448.1	0.0124451
3457.74	0.0117661
3467.38	0.0128181
3477.03	0.0128863
3486.67	0.0114155
3496.31	0.0115184
3505.95	0.0118921
3515.59	0.0111323
3525.24	0.0104952
3534.88	0.00992637
3544.52	0.01007
3554.16	0.00918099
3563.81	0.0104685
3573.45	0.00887334
3583.09	0.00900407
3592.73	0.00805523
3602.38	0.00793689
3612.02	0.00673784
3621.66	0.00669367
3631.3	0.00612019
3640.95	0.0058789
3650.59	0.00516819
3660.23	0.00523055
3669.87	0.00627887
3679.51	0.00505175
3689.16	0.00452067
3698.8	0.0049737
3708.44	0.00437425
3718.08	0.00463979
3727.73	0.00544991
3737.37	0.00564848
3747.01	0.00493147
3756.65	0.0053302
3766.3	0.00512163
3775.94	0.0046171
3785.58	0.00502137
3795.22	0.00561814
3804.86	0.00529242
3814.51	0.00471431
3824.15	0.00511247
3833.79	0.00419688
3843.43	0.00468299
3853.08	0.00442916
3862.72	0.00503148
3872.36	0.00537912
3882	0.00473127
3891.65	0.00426461
3901.29	0.00478115
3910.93	0.00472394
3920.57	0.00464309
3930.22	0.00506628
3939.86	0.00436383
3949.5	0.00495517
3959.14	0.00369621
3968.78	0.00518913
3978.43	0.00458759
3988.07	0.00439447
3997.71	0.00454764
