Measurement: Infrared, Infrared Data Processed
Mineral: Spodumene
Rruff sample: R060039
Ideal chemistry: LiAlSi_2_O_6_
Locality: Black Hills, South Dakota, USA
Source: University of Arizona Mineral Museum
Description: Light green massive
Measured chemistry: Li_1.00_(Al_0.99_Fe^3+^_0.01_)Si_2.00_O_6_
x	intensity
399.193	0.272187
408.835	0.191022
418.477	0.247783
428.12	0.318502
437.762	0.359981
447.404	0.363655
457.047	0.345354
466.689	0.33339
476.331	0.298004
485.974	0.25663
495.616	0.224248
505.258	0.194638
514.901	0.168234
524.543	0.172042
534.185	0.160463
543.828	0.138843
553.47	0.11509
563.112	0.12788
572.755	0.162364
582.397	0.172662
592.039	0.165845
601.682	0.148176
611.324	0.128156
620.966	0.116371
630.609	0.115918
640.251	0.111283
649.893	0.0888248
659.536	0.0592492
669.178	0.0431486
678.82	0.0312165
688.463	0.0278553
698.105	0.027328
707.747	0.0271528
717.39	0.0276077
727.032	0.0294938
736.674	0.0308281
746.317	0.0329122
755.959	0.0354338
765.601	0.0390023
775.244	0.0438552
784.886	0.0491548
794.528	0.0556858
804.171	0.0655646
813.813	0.076898
823.455	0.0958589
833.098	0.123883
842.74	0.166753
852.382	0.217609
862.025	0.218381
871.667	0.194235
881.309	0.212213
890.952	0.2385
900.594	0.257176
910.236	0.264664
919.879	0.258546
929.521	0.238178
939.163	0.21088
948.806	0.18662
958.448	0.169833
968.09	0.165732
977.733	0.176748
987.375	0.204671
997.017	0.248849
1006.66	0.29998
1016.3	0.332554
1025.94	0.326913
1035.59	0.304381
1045.23	0.279091
1054.87	0.2643
1064.51	0.260499
1074.16	0.254184
1083.8	0.243675
1093.44	0.211352
1103.08	0.168206
1112.72	0.13698
1122.37	0.118076
1132.01	0.110605
1141.65	0.105614
1151.3	0.0939138
1160.94	0.0826868
1170.58	0.0678996
1180.22	0.0495417
1189.86	0.0328956
1199.51	0.0200761
1209.15	0.0117869
1218.79	0.0075596
1228.43	0.00556666
1238.08	0.00387632
1247.72	0.00282813
1257.36	0.00245579
1267	0.00180874
1276.64	0.00136443
1286.29	0.00115679
1295.93	0.000907181
1305.57	0.000733886
1315.21	0.00106911
1324.86	0.000660075
1334.5	0.000781848
1344.14	0.000509367
1353.78	0.000519935
1363.43	0.000616021
1373.07	0.000811597
1382.71	0.00098032
1392.35	0.00132648
1401.99	0.00175816
1411.64	0.00203225
1421.28	0.00208185
1430.92	0.0016646
1440.57	0.00149665
1450.21	0.001092
1459.85	0.00119753
1469.49	0.00124457
1479.13	0.000915467
1488.78	0.000957843
1498.42	0.000791384
1508.06	0.00136115
1517.7	0.00139787
1527.35	0.00118167
1536.99	0.00155181
1546.63	0.00128977
1556.27	0.00205321
1565.91	0.0016947
1575.56	0.00224796
1585.2	0.00179193
1594.84	0.00198023
1604.48	0.00204451
1614.13	0.00244198
1623.77	0.00316543
1633.41	0.00382772
1643.05	0.00321626
1652.7	0.00461849
1662.34	0.0031063
1671.98	0.00255041
1681.62	0.00286629
1691.27	0.00254142
1700.91	0.00309812
1710.55	0.00215863
1720.19	0.00193476
1729.84	0.00207428
1739.48	0.00174307
1749.12	0.00188624
1758.76	0.0011211
1768.4	0.0022602
1778.05	0.00183906
1787.69	0.00238187
1797.33	0.00219385
1806.97	0.00165944
1816.62	0.00124298
1826.26	0.0015286
1835.9	0.000765497
1845.54	0.00142723
1855.18	0.000615178
1864.83	0.000789062
1874.47	0.000552148
1884.11	-3.74561e-05
1893.75	0.000255674
1903.4	-0.00103101
1913.04	-0.000638693
1922.68	-0.000372471
1932.32	-0.002192
1941.97	-0.00165738
1951.61	-0.00264905
1961.25	-0.00471039
1970.89	-0.00409777
1980.54	-0.00534171
1990.18	-0.00525689
1999.82	-0.00539681
2009.46	-0.00806282
2019.11	-0.0080095
2028.75	-0.00910853
2038.39	-0.00395898
2048.03	-0.00727484
2057.67	-0.00498374
2067.32	-0.00301305
2076.96	-0.00245676
2086.6	-0.00316346
2096.24	-0.00311578
2105.89	-0.0029671
2115.53	-0.00273688
2125.17	-0.00241125
2134.81	-0.00667915
2144.45	-0.00578699
2154.1	-0.0115148
2163.74	-0.00920956
2173.38	-0.0102931
2183.02	-0.00822236
2192.67	-0.00558866
2202.31	-0.00535349
2211.95	-0.00393476
2221.59	-0.00344514
2231.24	-0.0022158
2240.88	-0.000752523
2250.52	-0.000958783
2260.16	0.000250309
2269.8	-0.000160781
2279.45	0.00201932
2289.09	0.00275691
2298.73	0.00344614
2308.38	0.00251724
2318.02	0.00340993
2327.66	0.0036313
2337.3	0.00440606
2346.94	0.00354175
2356.59	0.0041762
2366.23	0.00489543
2375.87	0.0036204
2385.51	0.00373814
2395.16	0.00359078
2404.8	0.0043987
2414.44	0.00419423
2424.08	0.00543486
2433.72	0.00402591
2443.37	0.00498449
2453.01	0.00420508
2462.65	0.00496612
2472.29	0.00370453
2481.94	0.00422644
2491.58	0.00317431
2501.22	0.00555233
2510.86	0.00439455
2520.51	0.00416217
2530.15	0.00402688
2539.79	0.0030299
2549.43	0.00491896
2559.07	0.00535532
2568.72	0.00577043
2578.36	0.00533773
2588	0.00577358
2597.64	0.00547729
2607.29	0.00575009
2616.93	0.00546794
2626.57	0.00552446
2636.21	0.00617714
2645.86	0.0060923
2655.5	0.00665332
2665.14	0.00574553
2674.78	0.00593485
2684.43	0.00603295
2694.07	0.00629718
2703.71	0.0060002
2713.35	0.00634578
2722.99	0.00677941
2732.64	0.00739002
2742.28	0.00738025
2751.92	0.00715365
2761.56	0.00643609
2771.21	0.00705691
2780.85	0.0075764
2790.49	0.00719112
2800.13	0.0066785
2809.78	0.00690353
2819.42	0.00692553
2829.06	0.00700794
2838.7	0.00764543
2848.34	0.00711893
2857.99	0.00795696
2867.63	0.00803363
2877.27	0.00770998
2886.91	0.00838884
2896.56	0.00850101
2906.2	0.00829298
2915.84	0.00881151
2925.48	0.00895768
2935.13	0.00978489
2944.77	0.0080121
2954.41	0.00864272
2964.05	0.00851442
2973.7	0.0102809
2983.34	0.00889972
2992.98	0.00922158
3002.62	0.00883153
3012.26	0.00923004
3021.91	0.0100652
3031.55	0.0100314
3041.19	0.00894741
3050.83	0.00972107
3060.48	0.0120764
3070.12	0.0105387
3079.76	0.011762
3089.4	0.0109979
3099.05	0.0104406
3108.69	0.0114684
3118.33	0.011804
3127.97	0.0113684
3137.61	0.011677
3147.26	0.0118423
3156.9	0.0121543
3166.54	0.0120282
3176.18	0.0144773
3185.83	0.0130373
3195.47	0.0146381
3205.11	0.0118859
3214.75	0.0133281
3224.4	0.0126502
3234.04	0.013156
3243.68	0.0132614
3253.32	0.0151135
3262.97	0.0126888
3272.61	0.0144167
3282.25	0.0134358
3291.89	0.0126298
3301.53	0.0136018
3311.18	0.0135896
3320.82	0.0131702
3330.46	0.015242
3340.1	0.0156405
3349.75	0.0134473
3359.39	0.0139855
3369.03	0.0157435
3378.67	0.0151926
3388.32	0.0145772
3397.96	0.0160391
3407.6	0.0129608
3417.24	0.0151436
3426.89	0.0142821
3436.53	0.0139864
3446.17	0.0132628
3455.81	0.0145528
3465.45	0.0128843
3475.1	0.0138723
3484.74	0.0136256
3494.38	0.014708
3504.02	0.0139645
3513.67	0.0135331
3523.31	0.0109219
3532.95	0.0126896
3542.59	0.0129158
3552.24	0.0142892
3561.88	0.0109386
3571.52	0.012254
3581.16	0.0112566
3590.8	0.0123879
3600.45	0.0119264
3610.09	0.0113262
3619.73	0.0109146
3629.37	0.0115157
3639.02	0.00765418
3648.66	0.0107633
3658.3	0.00813951
3667.94	0.00904037
3677.59	0.0111695
3687.23	0.00882081
3696.87	0.00740665
3706.51	0.00798831
3716.16	0.00655526
3725.8	0.00819836
3735.44	0.00938337
3745.08	0.00858456
3754.72	0.00763505
3764.37	0.00751669
3774.01	0.00761333
3783.65	0.00652
3793.29	0.00889345
3802.94	0.0108162
3812.58	0.00723266
3822.22	0.0104958
3831.86	0.00691987
3841.51	0.00866752
3851.15	0.0111324
3860.79	0.0121666
3870.43	0.0109642
3880.07	0.0085921
3889.72	0.00909244
3899.36	0.0118385
3909	0.00973807
3918.64	0.0119031
3928.29	0.0107362
3937.93	0.00983257
3947.57	0.0113935
3957.21	0.0110006
3966.86	0.0106253
3976.5	0.00991615
3986.14	0.00872848
3995.78	0.00773287
