Measurement: Infrared, Infrared Data Processed
Mineral: Spodumene
Rruff sample: R040050
Ideal chemistry: LiAlSi_2_O_6_
Locality: Minas Gerais, Brazil
Source: University of Arizona Mineral Museum
Description: Pale pink fragment of a single crystal, variety kunzite
Measured chemistry: (Li_0.99_Na_0.01_)Al_1.00_Si_2.00_O_6_
x	intensity
399.193	0
408.835	0.1473
418.477	0.184571
428.12	0.23736
437.762	0.28577
447.404	0.304623
457.047	0.288677
466.689	0.288818
476.331	0.264504
485.974	0.227756
495.616	0.197644
505.258	0.171055
514.901	0.145812
524.543	0.148755
534.185	0.140934
543.828	0.122939
553.47	0.0981541
563.112	0.106154
572.755	0.136607
582.397	0.147238
592.039	0.142549
601.682	0.129718
611.324	0.113098
620.966	0.100701
630.609	0.0980417
640.251	0.0941281
649.893	0.0776663
659.536	0.0508784
669.178	0.0333081
678.82	0.022031
688.463	0.0186149
698.105	0.0174365
707.747	0.0174066
717.39	0.0177167
727.032	0.0192071
736.674	0.0202085
746.317	0.023192
755.959	0.0255011
765.601	0.0294907
775.244	0.0345309
784.886	0.0400666
794.528	0.0469613
804.171	0.055024
813.813	0.0654022
823.455	0.0808959
833.098	0.103603
842.74	0.137714
852.382	0.179627
862.025	0.182774
871.667	0.158556
881.309	0.170921
890.952	0.189203
900.594	0.20261
910.236	0.207277
919.879	0.202186
929.521	0.187908
939.163	0.167051
948.806	0.147347
958.448	0.134352
968.09	0.129797
977.733	0.136955
987.375	0.15714
997.017	0.1902
1006.66	0.231289
1016.3	0.259066
1025.94	0.253665
1035.59	0.237862
1045.23	0.221372
1054.87	0.213039
1064.51	0.213919
1074.16	0.214864
1083.8	0.209035
1093.44	0.185518
1103.08	0.147857
1112.72	0.118995
1122.37	0.0990217
1132.01	0.089694
1141.65	0.0848461
1151.3	0.0789069
1160.94	0.0704312
1170.58	0.0585425
1180.22	0.0443122
1189.86	0.030498
1199.51	0.0193312
1209.15	0.0117174
1218.79	0.0080396
1228.43	0.00590497
1238.08	0.00451086
1247.72	0.00374378
1257.36	0.00285185
1267	0.00267223
1276.64	0.00219642
1286.29	0.00217855
1295.93	0.00214898
1305.57	0.0021387
1315.21	0.00200241
1324.86	0.0023516
1334.5	0.00225317
1344.14	0.00195547
1353.78	0.00192481
1363.43	0.00214777
1373.07	0.00234747
1382.71	0.00230691
1392.35	0.00236849
1401.99	0.00278698
1411.64	0.00284993
1421.28	0.00298695
1430.92	0.0030986
1440.57	0.00291018
1450.21	0.0028729
1459.85	0.00286593
1469.49	0.00264362
1479.13	0.00251412
1488.78	0.00240263
1498.42	0.00255669
1508.06	0.0025138
1517.7	0.0029007
1527.35	0.00288881
1536.99	0.00304081
1546.63	0.00366931
1556.27	0.00400414
1565.91	0.00431432
1575.56	0.00447881
1585.2	0.00469144
1594.84	0.00440521
1604.48	0.00457589
1614.13	0.0049361
1623.77	0.00479882
1633.41	0.00452161
1643.05	0.00488278
1652.7	0.00431199
1662.34	0.0043464
1671.98	0.00416321
1681.62	0.00422186
1691.27	0.00440281
1700.91	0.00415066
1710.55	0.00388472
1720.19	0.00378806
1729.84	0.00362985
1739.48	0.00358779
1749.12	0.00374945
1758.76	0.00417489
1768.4	0.00379805
1778.05	0.00448818
1787.69	0.00381293
1797.33	0.00409414
1806.97	0.00426003
1816.62	0.00347178
1826.26	0.00354792
1835.9	0.00347433
1845.54	0.00354391
1855.18	0.00351877
1864.83	0.00336935
1874.47	0.00307582
1884.11	0.00300169
1893.75	0.00277081
1903.4	0.00275148
1913.04	0.00161131
1922.68	0.00275535
1932.32	0.000860261
1941.97	0.00131623
1951.61	-0.000247286
1961.25	0.000868752
1970.89	-0.00227698
1980.54	0.00210661
1990.18	-8.42015e-05
1999.82	-0.00115481
2009.46	-0.00332501
2019.11	-0.00310187
2028.75	-0.0037576
2038.39	-0.00220887
2048.03	-0.00131258
2057.67	1.63185e-05
2067.32	-0.000609674
2076.96	0.00134793
2086.6	0.000587
2096.24	-0.000312369
2105.89	0.000625369
2115.53	0.00117042
2125.17	-0.000822009
2134.81	-0.00214041
2144.45	-0.0055647
2154.1	-0.00677514
2163.74	-0.00484747
2173.38	-0.00252938
2183.02	-0.00297295
2192.67	-0.00193118
2202.31	0.00134041
2211.95	0.00138408
2221.59	0.0013667
2231.24	0.00147339
2240.88	0.00382468
2250.52	0.00411367
2260.16	0.00536835
2269.8	0.00583732
2279.45	0.0056833
2289.09	0.0069369
2298.73	0.00703808
2308.38	0.00726179
2318.02	0.0078856
2327.66	0.00719525
2337.3	0.00716777
2346.94	0.0074973
2356.59	0.00742026
2366.23	0.00707685
2375.87	0.00712374
2385.51	0.0072904
2395.16	0.00732973
2404.8	0.00779335
2414.44	0.00717026
2424.08	0.00815961
2433.72	0.00811097
2443.37	0.00766392
2453.01	0.00912191
2462.65	0.00851792
2472.29	0.00800842
2481.94	0.00897
2491.58	0.00904656
2501.22	0.00761412
2510.86	0.00870617
2520.51	0.00723501
2530.15	0.0098238
2539.79	0.00809085
2549.43	0.00850866
2559.07	0.00810105
2568.72	0.00919674
2578.36	0.0100023
2588	0.00906583
2597.64	0.00916183
2607.29	0.00977909
2616.93	0.00972334
2626.57	0.00950395
2636.21	0.00943967
2645.86	0.00949029
2655.5	0.0101869
2665.14	0.00962554
2674.78	0.00911589
2684.43	0.00932313
2694.07	0.00942385
2703.71	0.00912664
2713.35	0.00959509
2722.99	0.00955861
2732.64	0.00985556
2742.28	0.00928735
2751.92	0.0103986
2761.56	0.0104918
2771.21	0.00988275
2780.85	0.0100959
2790.49	0.00972558
2800.13	0.00978472
2809.78	0.00979655
2819.42	0.0104522
2829.06	0.0109513
2838.7	0.0107079
2848.34	0.0101239
2857.99	0.009543
2867.63	0.00994514
2877.27	0.010145
2886.91	0.00959237
2896.56	0.0106205
2906.2	0.0108785
2915.84	0.00980221
2925.48	0.0103203
2935.13	0.0108488
2944.77	0.0117492
2954.41	0.0100163
2964.05	0.0110609
2973.7	0.0107001
2983.34	0.0116069
2992.98	0.0113259
3002.62	0.0115085
3012.26	0.01178
3021.91	0.0128783
3031.55	0.0118158
3041.19	0.0116678
3050.83	0.012056
3060.48	0.0117531
3070.12	0.0125827
3079.76	0.0135035
3089.4	0.0135371
3099.05	0.0129084
3108.69	0.0126315
3118.33	0.0124724
3127.97	0.0133174
3137.61	0.0141165
3147.26	0.0135316
3156.9	0.0143972
3166.54	0.0138204
3176.18	0.0137602
3185.83	0.0133557
3195.47	0.0123434
3205.11	0.0142015
3214.75	0.0132807
3224.4	0.0133158
3234.04	0.0138522
3243.68	0.0158273
3253.32	0.0147102
3262.97	0.0140656
3272.61	0.0149462
3282.25	0.0141333
3291.89	0.015423
3301.53	0.0134175
3311.18	0.0147386
3320.82	0.0150779
3330.46	0.0150914
3340.1	0.015322
3349.75	0.0154812
3359.39	0.0164267
3369.03	0.0150545
3378.67	0.0149679
3388.32	0.0160156
3397.96	0.0168473
3407.6	0.0150542
3417.24	0.014464
3426.89	0.013594
3436.53	0.0153364
3446.17	0.0153053
3455.81	0.0163616
3465.45	0.0153685
3475.1	0.0151936
3484.74	0.0163381
3494.38	0.0150122
3504.02	0.0145019
3513.67	0.0142391
3523.31	0.0149927
3532.95	0.0155225
3542.59	0.015737
3552.24	0.0160231
3561.88	0.0161732
3571.52	0.0145589
3581.16	0.0134562
3590.8	0.0167783
3600.45	0.0146595
3610.09	0.0146993
3619.73	0.0154246
3629.37	0.0119964
3639.02	0.0131403
3648.66	0.0123885
3658.3	0.0136541
3667.94	0.0131253
3677.59	0.0144665
3687.23	0.013605
3696.87	0.0152116
3706.51	0.0140256
3716.16	0.0119485
3725.8	0.0148966
3735.44	0.0154961
3745.08	0.0160056
3754.72	0.0127678
3764.37	0.0137716
3774.01	0.0145825
3783.65	0.0156833
3793.29	0.01618
3802.94	0.0164953
3812.58	0.0168389
3822.22	0.016067
3831.86	0.0136731
3841.51	0.0149809
3851.15	0.0155829
3860.79	0.0162492
3870.43	0.0161789
3880.07	0.0128734
3889.72	0.0159421
3899.36	0.0172589
3909	0.0138668
3918.64	0.0169083
3928.29	0.0150241
3937.93	0.013882
3947.57	0.017147
3957.21	0.0174237
3966.86	0.0153325
3976.5	0.0186121
3986.14	0.0159403
3995.78	0.0166051
