Measurement: Infrared, Infrared Data Processed
Mineral: Spurrite
Rruff sample: R050236
Ideal chemistry: Ca_5_(SiO_4_)_2_(CO_3_)
Locality: South Sister Peak, Luna County, New Mexico, USA
Source: Marcus Origlieri
Description: Lavendar-gray massive
Measured chemistry: Ca_5.00_(Si_1.00_O_4_)_2_(CO_3_)
x	intensity
374.123	0.0592959
383.765	0.0435553
393.407	0.046777
403.05	0.0333838
412.692	0.0252209
422.334	0.0221804
431.976	0.0223279
441.619	0.0262424
451.261	0.031164
460.904	0.0269968
470.546	0.0279834
480.188	0.0361339
489.83	0.0540679
499.473	0.0907854
509.115	0.130383
518.758	0.0911287
528.4	0.0516489
538.042	0.0707438
547.684	0.055902
557.327	0.0391344
566.969	0.01818
576.611	0.0127278
586.254	0.0121954
595.896	0.0122504
605.538	0.0136736
615.181	0.0150734
624.823	0.0147766
634.466	0.0141327
644.108	0.0159647
653.75	0.0151074
663.393	0.0157776
673.035	0.0163006
682.677	0.0167511
692.319	0.0187238
701.962	0.0359721
711.604	0.0282929
721.246	0.0211217
730.889	0.0248715
740.531	0.028271
750.173	0.0256147
759.816	0.0225804
769.458	0.0272656
779.101	0.0282466
788.743	0.031454
798.385	0.0370788
808.028	0.0440787
817.67	0.0528868
827.312	0.0666337
836.955	0.0895843
846.597	0.127421
856.239	0.16053
865.881	0.12533
875.524	0.154535
885.166	0.140816
894.808	0.124669
904.451	0.179036
914.093	0.172419
923.736	0.158573
933.378	0.168643
943.02	0.1777
952.663	0.158834
962.305	0.135086
971.947	0.102262
981.59	0.0813517
991.232	0.0708988
1000.87	0.0659713
1010.52	0.0434222
1020.16	0.0326863
1029.8	0.0223189
1039.44	0.0178811
1049.09	0.0174945
1058.73	0.0154054
1068.37	0.0131336
1078.01	0.014192
1087.65	0.0108603
1097.3	0.0097525
1106.94	0.00947866
1116.58	0.00987192
1126.22	0.0119729
1135.87	0.0133294
1145.51	0.014667
1155.15	0.0129425
1164.79	0.0110143
1174.44	0.0114401
1184.08	0.0128412
1193.72	0.0151489
1203.36	0.0201549
1213.01	0.0285475
1222.65	0.0330397
1232.29	0.0245297
1241.93	0.0180085
1251.58	0.0193103
1261.22	0.025636
1270.86	0.0324291
1280.5	0.0269296
1290.14	0.0251565
1299.79	0.0259698
1309.43	0.0266322
1319.07	0.0306308
1328.71	0.0325789
1338.36	0.0384926
1348	0.0465122
1357.64	0.0599067
1367.28	0.0795147
1376.92	0.107602
1386.57	0.149019
1396.21	0.167361
1405.85	0.155967
1415.49	0.136619
1425.14	0.117964
1434.78	0.107057
1444.42	0.10007
1454.06	0.0960653
1463.71	0.0931688
1473.35	0.0912748
1482.99	0.0924324
1492.63	0.094315
1502.28	0.102
1511.92	0.105516
1521.56	0.0884976
1531.2	0.0584512
1540.85	0.0304844
1550.49	0.0156732
1560.13	0.01129
1569.77	0.00911818
1579.41	0.00794534
1589.06	0.00676289
1598.7	0.00610002
1608.34	0.00530109
1617.98	0.00478816
1627.63	0.00458078
1637.27	0.00450766
1646.91	0.00464165
1656.55	0.00424211
1666.19	0.00436493
1675.84	0.00404447
1685.48	0.00395561
1695.12	0.00390968
1704.77	0.00366521
1714.41	0.00365815
1724.05	0.00352227
1733.69	0.00359833
1743.33	0.00355475
1752.98	0.00387457
1762.62	0.00425142
1772.26	0.00499528
1781.9	0.00657465
1791.55	0.00658167
1801.19	0.00514227
1810.83	0.00377748
1820.47	0.0033583
1830.12	0.00334084
1839.76	0.00298917
1849.4	0.00304077
1859.04	0.00317469
1868.68	0.00287547
1878.33	0.00274776
1887.97	0.00272521
1897.61	0.00250415
1907.25	0.0028087
1916.9	0.00238812
1926.54	0.00271207
1936.18	0.00271841
1945.82	0.00248125
1955.46	0.00295775
1965.11	0.00250507
1974.75	0.00178966
1984.39	0.00421629
1994.04	0.00397367
2003.68	0.00293665
2013.32	0.00530221
2022.96	0.00415231
2032.6	0.00642223
2042.25	0.00588836
2051.89	0.00720534
2061.53	0.00597445
2071.17	0.00678845
2080.82	0.00675207
2090.46	0.00629725
2100.1	0.00687449
2109.74	0.00610541
2119.39	0.00593215
2129.03	0.00481872
2138.67	0.00438381
2148.31	0.00551334
2157.95	0.00352082
2167.6	0.00629771
2177.24	0.00756771
2186.88	0.00770951
2196.52	0.00799883
2206.17	0.00768955
2215.81	0.00742827
2225.45	0.00667617
2235.09	0.00722951
2244.74	0.0071382
2254.38	0.00750291
2264.02	0.007301
2273.66	0.00829159
2283.3	0.00852301
2292.95	0.00809407
2302.59	0.00829265
2312.23	0.00818354
2321.87	0.00935191
2331.52	0.00762846
2341.16	0.00737014
2350.8	0.00746051
2360.44	0.00715115
2370.09	0.00697417
2379.73	0.00733473
2389.37	0.00693551
2399.01	0.00727967
2408.66	0.00733836
2418.3	0.00733847
2427.94	0.00713427
2437.58	0.00718988
2447.22	0.00718655
2456.87	0.00780723
2466.51	0.00809845
2476.15	0.00841691
2485.79	0.00834409
2495.44	0.0089522
2505.08	0.00939988
2514.72	0.00955811
2524.36	0.00835456
2534.01	0.00754763
2543.65	0.00745671
2553.29	0.00740672
2562.93	0.00839068
2572.57	0.00923123
2582.22	0.00888461
2591.86	0.00906332
2601.5	0.00932247
2611.14	0.00945624
2620.79	0.00910877
2630.43	0.0091952
2640.07	0.00923582
2649.71	0.00956424
2659.36	0.00959232
2669	0.00954064
2678.64	0.00886225
2688.28	0.00905603
2697.93	0.0088801
2707.57	0.00924656
2717.21	0.00915133
2726.85	0.00911191
2736.49	0.00857024
2746.14	0.00900554
2755.78	0.008678
2765.42	0.00875411
2775.06	0.00855677
2784.71	0.00846724
2794.35	0.00808085
2803.99	0.00828622
2813.63	0.00860625
2823.28	0.00899403
2832.92	0.00961913
2842.56	0.0102266
2852.2	0.0113256
2861.84	0.0108918
2871.49	0.0105857
2881.13	0.0110071
2890.77	0.0106665
2900.41	0.0112639
2910.06	0.01163
2919.7	0.0134229
2929.34	0.012962
2938.98	0.0120268
2948.62	0.0110718
2958.27	0.0110161
2967.91	0.010376
2977.55	0.0105729
2987.2	0.0100823
2996.84	0.0103388
3006.48	0.0104879
3016.12	0.0119924
3025.76	0.00974533
3035.41	0.00998117
3045.05	0.0102803
3054.69	0.0109204
3064.33	0.0111695
3073.98	0.011977
3083.62	0.0121019
3093.26	0.0128053
3102.9	0.0129904
3112.55	0.0131016
3122.19	0.0128161
3131.83	0.0136403
3141.47	0.0131196
3151.11	0.0134489
3160.76	0.0141306
3170.4	0.0140031
3180.04	0.0138109
3189.68	0.0145335
3199.33	0.0141492
3208.97	0.0140013
3218.61	0.0142216
3228.25	0.0145292
3237.9	0.0148394
3247.54	0.0143529
3257.18	0.0144196
3266.82	0.0150222
3276.47	0.0150688
3286.11	0.014697
3295.75	0.0148627
3305.39	0.0144051
3315.03	0.0146567
3324.68	0.0147455
3334.32	0.0152636
3343.96	0.0144636
3353.6	0.0148022
3363.25	0.0149655
3372.89	0.0144417
3382.53	0.0154118
3392.17	0.0149048
3401.82	0.014472
3411.46	0.0144443
3421.1	0.0144896
3430.74	0.0137782
3440.39	0.0147344
3450.03	0.015332
3459.67	0.0150423
3469.31	0.0149989
3478.95	0.014962
3488.6	0.0146498
3498.24	0.0139812
3507.88	0.0143599
3517.52	0.0143766
3527.17	0.0138122
3536.81	0.0136176
3546.45	0.0133263
3556.09	0.0136876
3565.74	0.0129543
3575.38	0.01311
3585.02	0.0120343
3594.66	0.0127619
3604.3	0.012916
3613.95	0.0130466
3623.59	0.0128834
3633.23	0.012717
3642.87	0.0121907
3652.52	0.0111546
3662.16	0.0108457
3671.8	0.0118096
3681.44	0.0113383
3691.09	0.0103196
3700.73	0.0113114
3710.37	0.0107767
3720.01	0.011643
3729.66	0.0119138
3739.3	0.0111135
3748.94	0.0118924
3758.58	0.0109938
3768.22	0.0121164
3777.87	0.0116785
3787.51	0.0123532
3797.15	0.0128925
3806.79	0.0126326
3816.44	0.0122579
3826.08	0.012324
3835.72	0.0122171
3845.36	0.0118027
3855.01	0.0120353
3864.65	0.0118744
3874.29	0.0119321
3883.93	0.012807
3893.57	0.0125806
3903.22	0.0124541
3912.86	0.0138794
3922.5	0.0123267
3932.14	0.0129878
3941.79	0.0122883
3951.43	0.0120694
3961.07	0.0127304
3970.71	0.0128266
3980.36	0.0136387
3990	0.0136742
3999.64	0.0124076
