Measurement: Infrared, Infrared Data Processed
Mineral: Spurrite
Rruff sample: R050236
Ideal chemistry: Ca_5_(SiO_4_)_2_(CO_3_)
Locality: South Sister Peak, Luna County, New Mexico, USA
Source: Marcus Origlieri
Description: Lavendar-gray massive
Measured chemistry: Ca_5.00_(Si_1.00_O_4_)_2_(CO_3_)
x	intensity
50.1401	0.0195993
52.0686	0.017331
53.9971	0.0342442
55.9255	0.0252312
57.854	0.0180506
59.7825	0.0155192
61.7109	0.0181399
63.6394	0.0253395
65.5679	0.0245694
67.4963	0.0224156
69.4248	0.0212376
71.3533	0.0217401
73.2817	0.023068
75.2102	0.0235719
77.1387	0.0235572
79.0671	0.0259194
80.9956	0.0283304
82.9241	0.0293857
84.8525	0.0294261
86.781	0.0287179
88.7095	0.0291512
90.6379	0.0297744
92.5664	0.0301931
94.4948	0.032729
96.4233	0.0340703
98.3518	0.0348156
100.28	0.0350329
102.209	0.0352767
104.137	0.0367611
106.066	0.0381093
107.994	0.0382265
109.923	0.0380132
111.851	0.0378161
113.779	0.0374672
115.708	0.0374732
117.636	0.0371745
119.565	0.0373499
121.493	0.0379102
123.422	0.0379065
125.35	0.0384785
127.279	0.0390144
129.207	0.0397134
131.136	0.0408666
133.064	0.0423842
134.993	0.0429729
136.921	0.0436057
138.85	0.0442579
140.778	0.0439184
142.707	0.0433976
144.635	0.0437072
146.563	0.0444884
148.492	0.0464926
150.42	0.0476745
152.349	0.0489168
154.277	0.049946
156.206	0.0501113
158.134	0.0488138
160.063	0.0476519
161.991	0.0474167
163.92	0.0477877
165.848	0.0485454
167.777	0.0492067
169.705	0.0492101
171.633	0.0484116
173.562	0.0477693
175.49	0.0479873
177.419	0.0483928
179.347	0.0486125
181.276	0.0490822
183.204	0.0499383
185.133	0.0503038
187.061	0.0507988
188.99	0.0520954
190.918	0.0531582
192.847	0.0540033
194.775	0.0551039
196.704	0.0563358
198.632	0.0574083
200.56	0.0583173
202.489	0.0590048
204.417	0.0590792
206.346	0.0588086
208.274	0.0581233
210.203	0.0571085
212.131	0.0568533
214.06	0.0574059
215.988	0.0579421
217.917	0.0584328
219.845	0.0593067
221.774	0.0601746
223.702	0.0608538
225.631	0.0614808
227.559	0.0619848
229.488	0.0625293
231.416	0.0625574
233.344	0.0620179
235.273	0.06184
237.201	0.0625764
239.13	0.0633157
241.058	0.0634805
242.987	0.0640609
244.915	0.0653331
246.844	0.0664355
248.772	0.0672668
250.701	0.0680461
252.629	0.0686712
254.558	0.06943
256.486	0.0696031
258.414	0.069252
260.343	0.0690743
262.271	0.0689793
264.2	0.0688268
266.128	0.0688796
268.057	0.0694694
269.985	0.070482
271.914	0.071571
273.842	0.0725327
275.771	0.0734022
277.699	0.0740939
279.628	0.0751401
281.556	0.075913
283.485	0.0766056
285.413	0.0775663
287.341	0.079292
289.27	0.080456
291.198	0.0808045
293.127	0.0811655
295.055	0.0813215
296.984	0.0816161
298.912	0.0824041
300.841	0.0831271
302.769	0.0835264
304.698	0.08347
306.626	0.0835721
308.555	0.0833617
310.483	0.0825354
312.411	0.0817572
314.34	0.0810398
316.269	0.0798825
318.197	0.0787123
320.125	0.0777105
322.054	0.0766278
323.982	0.0755153
325.911	0.0746113
327.839	0.0737974
329.768	0.0723106
331.696	0.0705918
333.625	0.0689408
335.553	0.067042
337.482	0.0651281
339.41	0.0635638
341.339	0.062354
343.267	0.0612456
345.195	0.0600779
347.124	0.0592758
349.052	0.0591569
350.981	0.0589232
352.909	0.0582483
354.838	0.0574295
356.766	0.0562563
358.695	0.0549421
360.623	0.053883
362.552	0.0527339
364.48	0.0515304
366.409	0.0505099
368.337	0.049539
370.265	0.0484318
372.194	0.0478175
374.122	0.0471392
376.051	0.0458521
377.979	0.0447359
379.908	0.0440204
381.836	0.0432211
383.765	0.0425945
385.693	0.0422572
387.622	0.0421214
389.55	0.042269
391.479	0.0424824
393.407	0.0427326
395.336	0.0426869
397.264	0.0420478
399.192	0.0411631
401.121	0.0402073
403.049	0.0390058
404.978	0.0379092
406.906	0.0367271
408.835	0.0358146
410.763	0.0354394
412.692	0.035035
414.62	0.0344164
416.549	0.0340095
418.477	0.0336492
420.406	0.0333167
422.334	0.0332256
424.262	0.0335209
426.191	0.0336141
428.12	0.0337089
430.048	0.0340268
431.976	0.0340272
433.905	0.0341492
435.833	0.0344854
437.762	0.0347415
439.69	0.035057
441.619	0.0355193
443.547	0.0362254
445.476	0.0370917
447.404	0.0380086
449.333	0.0384548
451.261	0.0385946
453.19	0.0387231
455.118	0.0388307
457.046	0.0385207
458.975	0.0383082
460.903	0.0381652
462.832	0.03811
464.76	0.0381416
466.689	0.0384919
468.617	0.0392012
470.546	0.0395293
472.474	0.0397587
474.403	0.0403905
476.331	0.041565
478.26	0.0428442
480.188	0.0441078
482.116	0.0461744
484.045	0.0482638
485.974	0.0501403
487.902	0.0516527
489.83	0.0530258
491.759	0.0550355
493.687	0.0576304
495.616	0.0605466
497.544	0.0642238
499.473	0.0673144
501.401	0.070371
503.33	0.0735006
505.258	0.0767107
507.187	0.0797806
509.115	0.0812936
511.043	0.0809436
512.972	0.0791901
514.9	0.0761113
516.829	0.072384
518.757	0.0682442
520.686	0.0636049
522.614	0.0589244
524.543	0.05535
526.471	0.0533589
528.4	0.052417
530.328	0.0525189
532.257	0.0535009
534.185	0.055764
536.114	0.0582897
538.042	0.0601296
539.971	0.0610949
541.899	0.0604691
543.827	0.0590724
545.756	0.0571867
547.684	0.0548358
549.613	0.0522474
551.541	0.0499553
553.47	0.048794
555.398	0.0482012
557.327	0.0469018
559.255	0.044367
561.184	0.0413926
563.112	0.03932
565.041	0.0379672
566.969	0.0369641
568.898	0.0364886
570.826	0.0361693
572.755	0.0357609
574.683	0.035523
576.611	0.0355185
578.54	0.0352194
580.468	0.0350243
582.397	0.035206
584.325	0.035415
586.254	0.0355356
588.182	0.0355749
590.111	0.0355387
592.039	0.0352733
593.968	0.0351471
595.896	0.0353075
597.824	0.0349918
599.753	0.0343383
601.682	0.0341876
603.61	0.0339855
605.538	0.0339145
607.467	0.0342145
609.395	0.0341371
611.324	0.0336648
613.252	0.0345449
615.181	0.035634
617.109	0.0356946
619.038	0.0350133
620.966	0.0350387
622.894	0.035998
624.823	0.0373294
626.751	0.0387024
628.68	0.0398159
630.608	0.0407837
632.537	0.0421018
634.465	0.0426154
636.394	0.0425803
638.322	0.0427152
640.251	0.0430038
642.179	0.0435602
644.108	0.0442855
646.036	0.0445913
647.965	0.0444954
649.893	0.0442068
651.822	0.0442527
653.75	0.044427
655.678	0.0444649
657.607	0.0448298
659.535	0.0453851
661.464	0.0456369
663.392	0.0458899
665.321	0.0463395
667.249	0.0469834
669.178	0.0473227
671.106	0.0472605
673.035	0.0473556
674.963	0.0480512
676.892	0.0484098
678.82	0.0488687
680.749	0.0496137
682.677	0.0496536
684.606	0.0493005
686.534	0.0492936
688.462	0.0494897
690.391	0.0506057
692.319	0.0520362
694.248	0.0528123
696.176	0.0534792
698.105	0.0554606
700.033	0.0592358
