Measurement: Infrared, Infrared Data Processed
Mineral: Staurolite
Rruff sample: R050079
Ideal chemistry: Fe^2+^_2_Al_9_Si_4_O_23_(OH)
Locality: Keivy, Kola Peninsula, Russia
Source: Rock Currier
Description: Brown cruciform twins
Measured chemistry: (Fe^2+^_0.77_Mg_0.23_)_2_(Al_0.99_Ti_0.01_)_9_(Si_0.99_Al_0.01_)_4_O_20_(O_0.76_(OH)_0.24_)_4_
x	intensity
399.193	0.166478
408.835	0.15272
418.477	0.178208
428.12	0.191727
437.762	0.191241
447.404	0.190233
457.047	0.211004
466.689	0.20647
476.331	0.19118
485.974	0.176785
495.616	0.160539
505.258	0.145812
514.901	0.144056
524.543	0.139054
534.185	0.132116
543.828	0.126511
553.47	0.121264
563.112	0.122183
572.755	0.126545
582.397	0.134584
592.039	0.137923
601.682	0.13649
611.324	0.134889
620.966	0.133936
630.609	0.132058
640.251	0.132094
649.893	0.127856
659.536	0.122232
669.178	0.116542
678.82	0.11261
688.463	0.111314
698.105	0.0991426
707.747	0.0817736
717.39	0.0707423
727.032	0.0628972
736.674	0.0582094
746.317	0.0570196
755.959	0.0582708
765.601	0.0614562
775.244	0.0724831
784.886	0.0684597
794.528	0.0743269
804.171	0.065355
813.813	0.054428
823.455	0.062723
833.098	0.0697935
842.74	0.0750728
852.382	0.0774541
862.025	0.0778546
871.667	0.0823655
881.309	0.0891752
890.952	0.0977259
900.594	0.10268
910.236	0.107563
919.879	0.115087
929.521	0.123497
939.163	0.129758
948.806	0.133419
958.448	0.138204
968.09	0.141628
977.733	0.14171
987.375	0.1417
997.017	0.140348
1006.66	0.139792
1016.3	0.138281
1025.94	0.131694
1035.59	0.122818
1045.23	0.113601
1054.87	0.108075
1064.51	0.100067
1074.16	0.0950043
1083.8	0.0982765
1093.44	0.0954791
1103.08	0.0873995
1112.72	0.0787305
1122.37	0.070398
1132.01	0.0612633
1141.65	0.0535925
1151.3	0.0461758
1160.94	0.0467493
1170.58	0.0425879
1180.22	0.0353575
1189.86	0.0306696
1199.51	0.0258016
1209.15	0.0196236
1218.79	0.0135115
1228.43	0.00988598
1238.08	0.00861053
1247.72	0.00774574
1257.36	0.00689438
1267	0.00631704
1276.64	0.00609495
1286.29	0.00503588
1295.93	0.00466361
1305.57	0.00428538
1315.21	0.00470684
1324.86	0.0038903
1334.5	0.0040752
1344.14	0.00410664
1353.78	0.00384394
1363.43	0.00391422
1373.07	0.00400233
1382.71	0.00358197
1392.35	0.00402174
1401.99	0.00396543
1411.64	0.00393578
1421.28	0.00404309
1430.92	0.00428663
1440.57	0.00421145
1450.21	0.00453206
1459.85	0.00463328
1469.49	0.00487952
1479.13	0.00450059
1488.78	0.00444854
1498.42	0.00436084
1508.06	0.00372522
1517.7	0.00412011
1527.35	0.00428924
1536.99	0.00416985
1546.63	0.00398807
1556.27	0.00455051
1565.91	0.00511105
1575.56	0.00483757
1585.2	0.00570864
1594.84	0.00601319
1604.48	0.00628152
1614.13	0.00642449
1623.77	0.00636861
1633.41	0.00608429
1643.05	0.00615962
1652.7	0.005677
1662.34	0.00618666
1671.98	0.006519
1681.62	0.00644161
1691.27	0.00648628
1700.91	0.00605124
1710.55	0.0062247
1720.19	0.00632159
1729.84	0.00552185
1739.48	0.00464408
1749.12	0.00446948
1758.76	0.00501997
1768.4	0.00523145
1778.05	0.00503012
1787.69	0.00535854
1797.33	0.00526439
1806.97	0.00542115
1816.62	0.00454652
1826.26	0.00513827
1835.9	0.00432861
1845.54	0.00443229
1855.18	0.0046693
1864.83	0.0049255
1874.47	0.00489393
1884.11	0.00446451
1893.75	0.00337307
1903.4	0.00331429
1913.04	0.00363531
1922.68	0.00186387
1932.32	0.0024312
1941.97	0.000660447
1951.61	-0.00175668
1961.25	-7.13252e-05
1970.89	-0.00387257
1980.54	0.00209617
1990.18	-0.000408669
1999.82	-0.00238981
2009.46	-0.00242481
2019.11	-0.00297763
2028.75	-0.00190087
2038.39	0.00133163
2048.03	0.00147547
2057.67	0.00182304
2067.32	0.00129702
2076.96	0.00372734
2086.6	0.00384616
2096.24	0.00243828
2105.89	0.00340513
2115.53	0.00143119
2125.17	0.00182527
2134.81	-0.000975957
2144.45	0.000955883
2154.1	-0.0041687
2163.74	0.00177082
2173.38	-0.00257588
2183.02	0.000560171
2192.67	0.00394407
2202.31	0.000806167
2211.95	0.00161825
2221.59	0.00288959
2231.24	0.00288919
2240.88	0.00368744
2250.52	0.00393061
2260.16	0.00482993
2269.8	0.00576062
2279.45	0.00603686
2289.09	0.00750287
2298.73	0.00750062
2308.38	0.00829214
2318.02	0.00907072
2327.66	0.00719141
2337.3	0.00774026
2346.94	0.00798436
2356.59	0.00722842
2366.23	0.00722469
2375.87	0.00670628
2385.51	0.00666017
2395.16	0.00645745
2404.8	0.00839208
2414.44	0.00682944
2424.08	0.00722174
2433.72	0.0080981
2443.37	0.00848691
2453.01	0.00815795
2462.65	0.0094058
2472.29	0.00810956
2481.94	0.00796983
2491.58	0.00845339
2501.22	0.00849152
2510.86	0.00875204
2520.51	0.00721803
2530.15	0.00796408
2539.79	0.00830512
2549.43	0.00876929
2559.07	0.00922119
2568.72	0.00918378
2578.36	0.0093853
2588	0.00947532
2597.64	0.00877943
2607.29	0.00956428
2616.93	0.00998643
2626.57	0.00970291
2636.21	0.0104356
2645.86	0.0110127
2655.5	0.0102645
2665.14	0.00947608
2674.78	0.00898797
2684.43	0.00888321
2694.07	0.0097364
2703.71	0.00979052
2713.35	0.00841631
2722.99	0.00960527
2732.64	0.00946691
2742.28	0.00826816
2751.92	0.00973365
2761.56	0.00978095
2771.21	0.00998496
2780.85	0.0100701
2790.49	0.0100112
2800.13	0.00961556
2809.78	0.00981288
2819.42	0.0100978
2829.06	0.0106087
2838.7	0.0108814
2848.34	0.0107384
2857.99	0.0105428
2867.63	0.0107922
2877.27	0.0111162
2886.91	0.0107457
2896.56	0.0122631
2906.2	0.0114117
2915.84	0.0122937
2925.48	0.0123944
2935.13	0.0109896
2944.77	0.0110019
2954.41	0.0109489
2964.05	0.0108544
2973.7	0.0115084
2983.34	0.0113434
2992.98	0.0117057
3002.62	0.0118323
3012.26	0.0104818
3021.91	0.0108161
3031.55	0.011603
3041.19	0.0103678
3050.83	0.00965199
3060.48	0.0117228
3070.12	0.0122764
3079.76	0.0125628
3089.4	0.0123229
3099.05	0.0113231
3108.69	0.0115561
3118.33	0.0112728
3127.97	0.0110102
3137.61	0.0121244
3147.26	0.0123873
3156.9	0.0125558
3166.54	0.0131505
3176.18	0.0130885
3185.83	0.0129617
3195.47	0.0136143
3205.11	0.0126189
3214.75	0.0132655
3224.4	0.0132839
3234.04	0.0137994
3243.68	0.0130597
3253.32	0.0132008
3262.97	0.0142985
3272.61	0.0163834
3282.25	0.0149513
3291.89	0.0141139
3301.53	0.0164961
3311.18	0.0151474
3320.82	0.015922
3330.46	0.0162261
3340.1	0.0164747
3349.75	0.0172691
3359.39	0.0179452
3369.03	0.0172849
3378.67	0.0195536
3388.32	0.0196958
3397.96	0.0206926
3407.6	0.0214348
3417.24	0.0225421
3426.89	0.0229872
3436.53	0.0231919
3446.17	0.020533
3455.81	0.0201942
3465.45	0.0198178
3475.1	0.0190494
3484.74	0.0170266
3494.38	0.0152768
3504.02	0.0135418
3513.67	0.0136434
3523.31	0.0125935
3532.95	0.0112889
3542.59	0.0132104
3552.24	0.0124773
3561.88	0.0142509
3571.52	0.0123019
3581.16	0.0123371
3590.8	0.0117612
3600.45	0.0126861
3610.09	0.0124139
3619.73	0.0101466
3629.37	0.0154773
3639.02	0.012114
3648.66	0.0156953
3658.3	0.0116862
3667.94	0.0100062
3677.59	0.0115498
3687.23	0.010049
3696.87	0.00974682
3706.51	0.008587
3716.16	0.010731
3725.8	0.0102343
3735.44	0.0102232
3745.08	0.0105409
3754.72	0.0102767
3764.37	0.01019
3774.01	0.00977709
3783.65	0.0107437
3793.29	0.00941948
3802.94	0.0108809
3812.58	0.0129366
3822.22	0.013199
3831.86	0.00909781
3841.51	0.0110849
3851.15	0.00929216
3860.79	0.010228
3870.43	0.00712092
3880.07	0.00856395
3889.72	0.0125798
3899.36	0.00878355
3909	0.00928207
3918.64	0.00996247
3928.29	0.00815988
3937.93	0.00837809
3947.57	0.00884204
3957.21	0.0113085
3966.86	0.0127137
3976.5	0.00987052
3986.14	0.0114298
3995.78	0.00991454
