Measurement: Infrared, Infrared Data Processed
Mineral: Stephanite
Rruff sample: R050143
Ideal chemistry: Ag^1+^_5_Sb^3+^S^2-^_4_
Locality: Proano mine, Fresnillo, Zacatecas, Mexico
Source: Dave Bunk Minerals
Description: Group of black pseudohexagonal crystals
Measured chemistry: Ag_5.00_Sb_1.00_S_4.00_
x	intensity
50.1401	0.0429964
52.0686	0.0287532
53.9971	0.021704
55.9255	0.0258994
57.854	0.033352
59.7825	0.0298378
61.7109	0.0347987
63.6394	0.0441273
65.5679	0.0399586
67.4963	0.041157
69.4248	0.0461617
71.3533	0.0477832
73.2817	0.0455001
75.2102	0.0459175
77.1387	0.0487236
79.0671	0.0509471
80.9956	0.0506997
82.9241	0.0546168
84.8525	0.0566984
86.781	0.0535597
88.7095	0.0515602
90.6379	0.0526566
92.5664	0.0546525
94.4948	0.0568463
96.4233	0.0576011
98.3518	0.058976
100.28	0.0595738
102.209	0.0599208
104.137	0.0610615
106.066	0.0620352
107.994	0.0641743
109.923	0.0658292
111.851	0.0651356
113.779	0.0654369
115.708	0.0670532
117.636	0.068828
119.565	0.0711331
121.493	0.0728175
123.422	0.073175
125.35	0.0745674
127.279	0.0766997
129.207	0.077504
131.136	0.0790278
133.064	0.0829158
134.993	0.0851622
136.921	0.0862697
138.85	0.0880999
140.778	0.0889187
142.707	0.0899332
144.635	0.0918085
146.563	0.0943027
148.492	0.0972959
150.42	0.0980642
152.349	0.0982572
154.277	0.0985396
156.206	0.100104
158.134	0.101312
160.063	0.101063
161.991	0.101489
163.92	0.103026
165.848	0.104164
167.777	0.104263
169.705	0.10508
171.633	0.106167
173.562	0.10615
175.49	0.107479
177.419	0.107479
179.347	0.107687
181.276	0.10879
183.204	0.110394
185.133	0.111367
187.061	0.112395
188.99	0.112921
190.918	0.113629
192.847	0.113798
194.775	0.114059
196.704	0.114392
198.632	0.114332
200.56	0.11406
202.489	0.113729
204.417	0.112396
206.346	0.111594
208.274	0.110961
210.203	0.109993
212.131	0.108803
214.06	0.107374
215.988	0.105655
217.917	0.104053
219.845	0.102515
221.774	0.101277
223.702	0.100213
225.631	0.100068
227.559	0.0991956
229.488	0.0982472
231.416	0.0984131
233.344	0.0986799
235.273	0.0984529
237.201	0.0984246
239.13	0.0986854
241.058	0.0992309
242.987	0.100208
244.915	0.101407
246.844	0.101896
248.772	0.102397
250.701	0.102422
252.629	0.10224
254.558	0.101803
256.486	0.10103
258.414	0.100579
260.343	0.100442
262.271	0.100406
264.2	0.100868
266.128	0.101851
268.057	0.103466
269.985	0.105367
271.914	0.10729
273.842	0.109306
275.771	0.112158
277.699	0.115053
279.628	0.117828
281.556	0.120518
283.485	0.123295
285.413	0.126475
287.341	0.130327
289.27	0.133816
291.198	0.136214
293.127	0.138205
295.055	0.139994
296.984	0.140742
298.912	0.140498
300.841	0.138168
302.769	0.133731
304.698	0.126699
306.626	0.119371
308.555	0.110984
310.483	0.101676
312.411	0.0917517
314.34	0.0820426
316.269	0.0740402
318.197	0.068341
320.125	0.0658511
322.054	0.0663619
323.982	0.0690305
325.911	0.0729921
327.839	0.0782621
329.768	0.084092
331.696	0.0897244
333.625	0.0939488
335.553	0.095042
337.482	0.0906824
339.41	0.0821914
341.339	0.0744482
343.267	0.0712881
345.195	0.0719063
347.124	0.0743233
349.052	0.0774427
350.981	0.0807141
352.909	0.0837537
354.838	0.0869083
356.766	0.0897986
358.695	0.0922213
360.623	0.0944645
362.552	0.096974
364.48	0.0988241
366.409	0.100475
368.337	0.102336
370.265	0.10434
372.194	0.105897
374.122	0.107781
376.051	0.109363
377.979	0.110251
379.908	0.111331
381.836	0.112993
383.765	0.114433
385.693	0.115852
387.622	0.11678
389.55	0.117751
391.479	0.118787
393.407	0.119775
395.336	0.120636
397.264	0.12171
399.192	0.12312
401.121	0.124238
403.049	0.125218
404.978	0.12605
406.906	0.126809
408.835	0.12785
410.763	0.128625
412.692	0.128853
414.62	0.129275
416.549	0.130299
418.477	0.131025
420.406	0.131714
422.334	0.132576
424.262	0.133644
426.191	0.134422
428.12	0.135087
430.048	0.135667
431.976	0.136391
433.905	0.137131
435.833	0.138
437.762	0.138507
439.69	0.138853
441.619	0.139287
443.547	0.140074
445.476	0.140731
447.404	0.141167
449.333	0.14209
451.261	0.143431
453.19	0.143919
455.118	0.143953
457.046	0.144967
458.975	0.146026
460.903	0.146457
462.832	0.146879
464.76	0.147847
466.689	0.148722
468.617	0.149266
470.546	0.149857
472.474	0.150319
474.403	0.150647
476.331	0.151271
478.26	0.15241
480.188	0.153316
482.116	0.15368
484.045	0.154006
485.974	0.154681
487.902	0.155267
489.83	0.156232
491.759	0.156908
493.687	0.157561
495.616	0.15801
497.544	0.158729
499.473	0.159393
501.401	0.159975
503.33	0.159968
505.258	0.160294
507.187	0.160987
509.115	0.161484
511.043	0.161928
512.972	0.162088
514.9	0.162199
516.829	0.162475
518.757	0.162784
520.686	0.163079
522.614	0.163806
524.543	0.164883
526.471	0.16547
528.4	0.165988
530.328	0.166719
532.257	0.166944
534.185	0.166626
536.114	0.166913
538.042	0.167295
539.971	0.167855
541.899	0.168669
543.827	0.168993
545.756	0.169348
547.684	0.17102
549.613	0.171967
551.541	0.17163
553.47	0.171875
555.398	0.172773
557.327	0.173458
559.255	0.174587
561.184	0.175563
563.112	0.176534
565.041	0.177055
566.969	0.1774
568.898	0.177633
570.826	0.178434
572.755	0.179005
574.683	0.178901
576.611	0.179057
578.54	0.179541
580.468	0.180117
582.397	0.180994
584.325	0.181689
586.254	0.18261
588.182	0.182758
590.111	0.182934
592.039	0.183996
593.968	0.185033
595.896	0.185888
597.824	0.186935
599.753	0.187655
601.682	0.188404
603.61	0.189561
605.538	0.190246
607.467	0.189843
609.395	0.190507
611.324	0.190854
613.252	0.191057
615.181	0.191428
617.109	0.191697
619.038	0.191854
620.966	0.192172
622.894	0.192366
624.823	0.19291
626.751	0.193014
628.68	0.193423
630.608	0.193882
632.537	0.194298
634.465	0.194376
636.394	0.194383
638.322	0.194882
640.251	0.195273
642.179	0.19579
644.108	0.196113
646.036	0.196507
647.965	0.196747
649.893	0.196779
651.822	0.197219
653.75	0.197481
655.678	0.197543
657.607	0.198365
659.535	0.199273
661.464	0.199477
663.392	0.199538
665.321	0.199415
667.249	0.200112
669.178	0.2008
671.106	0.200479
673.035	0.200678
674.963	0.201194
676.892	0.201607
678.82	0.202342
680.749	0.202484
682.677	0.202361
684.606	0.202731
686.534	0.202929
688.462	0.202728
690.391	0.203213
692.319	0.204555
694.248	0.206177
696.176	0.205886
698.105	0.205917
700.033	0.208824
