Measurement: Infrared, Infrared Data Processed
Mineral: Stibarsen
Rruff sample: R070299
Ideal chemistry: SbAs
Locality: Varutrask, Skelleftea, Vasterbotten, Sweden
Source: James Shigley
Description: Grey metallic platy fragment associated with arsenic
Measured chemistry: gray: (Sb_0.92_As_0.08_)_Σ=1_As_1.00_; black rings: (As_0.98_Sb_0.02_)_Σ=1_ (arsenic)
x	intensity
399.193	0.225356
408.835	0.233905
418.477	0.243089
428.12	0.253518
437.762	0.259396
447.404	0.266853
457.047	0.272188
466.689	0.28238
476.331	0.279606
485.974	0.264572
495.616	0.257752
505.258	0.262805
514.901	0.273475
524.543	0.282274
534.185	0.288354
543.828	0.297818
553.47	0.304715
563.112	0.308524
572.755	0.314524
582.397	0.321303
592.039	0.326136
601.682	0.330267
611.324	0.335667
620.966	0.340425
630.609	0.346258
640.251	0.351456
649.893	0.356057
659.536	0.36034
669.178	0.366793
678.82	0.371701
688.463	0.377339
698.105	0.384175
707.747	0.390263
717.39	0.396813
727.032	0.403478
736.674	0.409258
746.317	0.418245
755.959	0.429012
765.601	0.439889
775.244	0.44948
784.886	0.460373
794.528	0.412118
804.171	0.332068
813.813	0.294366
823.455	0.279604
833.098	0.270935
842.74	0.26284
852.382	0.237307
862.025	0.254664
871.667	0.281234
881.309	0.300368
890.952	0.315026
900.594	0.327793
910.236	0.3405
919.879	0.34701
929.521	0.355109
939.163	0.360341
948.806	0.368337
958.448	0.375375
968.09	0.382066
977.733	0.387918
987.375	0.392489
997.017	0.397852
1006.66	0.403603
1016.3	0.410227
1025.94	0.417025
1035.59	0.4214
1045.23	0.419608
1054.87	0.414354
1064.51	0.410498
1074.16	0.411923
1083.8	0.416344
1093.44	0.421254
1103.08	0.425953
1112.72	0.430196
1122.37	0.434467
1132.01	0.439182
1141.65	0.444586
1151.3	0.447609
1160.94	0.448771
1170.58	0.450209
1180.22	0.45262
1189.86	0.456314
1199.51	0.460123
1209.15	0.462612
1218.79	0.465227
1228.43	0.467886
1238.08	0.470374
1247.72	0.472818
1257.36	0.474447
1267	0.474898
1276.64	0.476352
1286.29	0.478714
1295.93	0.480944
1305.57	0.483224
1315.21	0.485537
1324.86	0.487657
1334.5	0.489779
1344.14	0.491657
1353.78	0.4936
1363.43	0.495228
1373.07	0.497165
1382.71	0.498502
1392.35	0.500661
1401.99	0.502441
1411.64	0.504335
1421.28	0.506477
1430.92	0.508744
1440.57	0.510661
1450.21	0.513011
1459.85	0.515264
1469.49	0.516001
1479.13	0.518347
1488.78	0.520757
1498.42	0.522919
1508.06	0.525032
1517.7	0.526888
1527.35	0.528305
1536.99	0.530017
1546.63	0.531276
1556.27	0.533687
1565.91	0.535172
1575.56	0.53724
1585.2	0.538488
1594.84	0.540315
1604.48	0.541963
1614.13	0.543914
1623.77	0.545915
1633.41	0.547585
1643.05	0.548897
1652.7	0.551319
1662.34	0.551798
1671.98	0.553606
1681.62	0.555436
1691.27	0.5571
1700.91	0.559413
1710.55	0.560101
1720.19	0.562334
1729.84	0.56411
1739.48	0.563565
1749.12	0.563882
1758.76	0.56549
1768.4	0.566943
1778.05	0.567764
1787.69	0.56941
1797.33	0.570717
1806.97	0.571354
1816.62	0.571631
1826.26	0.573582
1835.9	0.573627
1845.54	0.574858
1855.18	0.575243
1864.83	0.575925
1874.47	0.577035
1884.11	0.576127
1893.75	0.579947
1903.4	0.581151
1913.04	0.582071
1922.68	0.582834
1932.32	0.584073
1941.97	0.585112
1951.61	0.585634
1961.25	0.589875
1970.89	0.58608
1980.54	0.590488
1990.18	0.592077
1999.82	0.599437
2009.46	0.598594
2019.11	0.597094
2028.75	0.600124
2038.39	0.597298
2048.03	0.600774
2057.67	0.605672
2067.32	0.604474
2076.96	0.607784
2086.6	0.610488
2096.24	0.611508
2105.89	0.614075
2115.53	0.6146
2125.17	0.618353
2134.81	0.619426
2144.45	0.619006
2154.1	0.622184
2163.74	0.620841
2173.38	0.622383
2183.02	0.624351
2192.67	0.622534
2202.31	0.628703
2211.95	0.627193
2221.59	0.630806
2231.24	0.632558
2240.88	0.635913
2250.52	0.637569
2260.16	0.636065
2269.8	0.638122
2279.45	0.641557
2289.09	0.641423
2298.73	0.643221
2308.38	0.645212
2318.02	0.648003
2327.66	0.650364
2337.3	0.651158
2346.94	0.653764
2356.59	0.653773
2366.23	0.655867
2375.87	0.65645
2385.51	0.657731
2395.16	0.65838
2404.8	0.657529
2414.44	0.660007
2424.08	0.66065
2433.72	0.661234
2443.37	0.663457
2453.01	0.663848
2462.65	0.664812
2472.29	0.666158
2481.94	0.668035
2491.58	0.669291
2501.22	0.670161
2510.86	0.6717
2520.51	0.67368
2530.15	0.674368
2539.79	0.675974
2549.43	0.677734
2559.07	0.678807
2568.72	0.680103
2578.36	0.683173
2588	0.685135
2597.64	0.686001
2607.29	0.688517
2616.93	0.690732
2626.57	0.693153
2636.21	0.694775
2645.86	0.69709
2655.5	0.699851
2665.14	0.701679
2674.78	0.703307
2684.43	0.704697
2694.07	0.706228
2703.71	0.70764
2713.35	0.708418
2722.99	0.709452
2732.64	0.711166
2742.28	0.712063
2751.92	0.713003
2761.56	0.714476
2771.21	0.715875
2780.85	0.716268
2790.49	0.717833
2800.13	0.718968
2809.78	0.720494
2819.42	0.722126
2829.06	0.724235
2838.7	0.726419
2848.34	0.727545
2857.99	0.727041
2867.63	0.727617
2877.27	0.728685
2886.91	0.73097
2896.56	0.733428
2906.2	0.735941
2915.84	0.736222
2925.48	0.734623
2935.13	0.731945
2944.77	0.732767
2954.41	0.733672
2964.05	0.732673
2973.7	0.732336
2983.34	0.733967
2992.98	0.735927
3002.62	0.736479
3012.26	0.738552
3021.91	0.739321
3031.55	0.740707
3041.19	0.742001
3050.83	0.742615
3060.48	0.743563
3070.12	0.745185
3079.76	0.746248
3089.4	0.747744
3099.05	0.749182
3108.69	0.749252
3118.33	0.750906
3127.97	0.75221
3137.61	0.752981
3147.26	0.753674
3156.9	0.754797
3166.54	0.75719
3176.18	0.756948
3185.83	0.75937
3195.47	0.759626
3205.11	0.761865
3214.75	0.762567
3224.4	0.764285
3234.04	0.765407
3243.68	0.766134
3253.32	0.767303
3262.97	0.768994
3272.61	0.770568
3282.25	0.771326
3291.89	0.773652
3301.53	0.774355
3311.18	0.775547
3320.82	0.776218
3330.46	0.777413
3340.1	0.779041
3349.75	0.779132
3359.39	0.779533
3369.03	0.780861
3378.67	0.781323
3388.32	0.782834
3397.96	0.78298
3407.6	0.784828
3417.24	0.785003
3426.89	0.786475
3436.53	0.786944
3446.17	0.788648
3455.81	0.790225
3465.45	0.790985
3475.1	0.792227
3484.74	0.793278
3494.38	0.79484
3504.02	0.794227
3513.67	0.797164
3523.31	0.797402
3532.95	0.798166
3542.59	0.798858
3552.24	0.800331
3561.88	0.800243
3571.52	0.801836
3581.16	0.802466
3590.8	0.803348
3600.45	0.803616
3610.09	0.805381
3619.73	0.805939
3629.37	0.808373
3639.02	0.809352
3648.66	0.811231
3658.3	0.811842
3667.94	0.812864
3677.59	0.813227
3687.23	0.815597
3696.87	0.816031
3706.51	0.816809
3716.16	0.819699
3725.8	0.821221
3735.44	0.823592
3745.08	0.825121
3754.72	0.82385
3764.37	0.822977
3774.01	0.824754
3783.65	0.826834
3793.29	0.826856
3802.94	0.829717
3812.58	0.829301
3822.22	0.832509
3831.86	0.831926
3841.51	0.834024
3851.15	0.833874
3860.79	0.833504
3870.43	0.836179
3880.07	0.836139
3889.72	0.837455
3899.36	0.837881
3909	0.839039
3918.64	0.840168
3928.29	0.840822
3937.93	0.841802
3947.57	0.842368
3957.21	0.843061
3966.86	0.844248
3976.5	0.844207
3986.14	0.844625
3995.78	0.846056
