Measurement: Infrared, Infrared Data Processed
Mineral: Stibnite
Rruff sample: R050066
Ideal chemistry: Sb^3+^_2_S^2-^_3_
Locality: Wuling, Jiangxi Province, China
Source: Rock Currier
Description: Lead-gray prismatic crystal
Measured chemistry: Sb_2.00_S_3.00_
x	intensity
374.123	0.116356
383.765	0.131637
393.407	0.141459
403.05	0.154069
412.692	0.163358
422.334	0.168103
431.976	0.174667
441.619	0.178314
451.261	0.184975
460.904	0.187526
470.546	0.191416
480.188	0.197042
489.83	0.200349
499.473	0.203597
509.115	0.207175
518.758	0.211165
528.4	0.215026
538.042	0.217385
547.684	0.219776
557.327	0.222821
566.969	0.224854
576.611	0.227193
586.254	0.230618
595.896	0.233513
605.538	0.235743
615.181	0.238119
624.823	0.24082
634.466	0.243418
644.108	0.245612
653.75	0.247089
663.393	0.249982
673.035	0.251779
682.677	0.254211
692.319	0.256838
701.962	0.258207
711.604	0.260573
721.246	0.262545
730.889	0.264738
740.531	0.266963
750.173	0.268681
759.816	0.270553
769.458	0.272432
779.101	0.274998
788.743	0.27661
798.385	0.279074
808.028	0.281501
817.67	0.282983
827.312	0.285022
836.955	0.285912
846.597	0.287944
856.239	0.289816
865.881	0.292866
875.524	0.295212
885.166	0.297298
894.808	0.299729
904.451	0.301921
914.093	0.303891
923.736	0.306267
933.378	0.308554
943.02	0.310779
952.663	0.312614
962.305	0.314512
971.947	0.316695
981.59	0.318303
991.232	0.319778
1000.87	0.321609
1010.52	0.323422
1020.16	0.325119
1029.8	0.326885
1039.44	0.328721
1049.09	0.330272
1058.73	0.331359
1068.37	0.332845
1078.01	0.334715
1087.65	0.336168
1097.3	0.338174
1106.94	0.340047
1116.58	0.341456
1126.22	0.34347
1135.87	0.346639
1145.51	0.349178
1155.15	0.350209
1164.79	0.350825
1174.44	0.352036
1184.08	0.353541
1193.72	0.35545
1203.36	0.357096
1213.01	0.358169
1222.65	0.359909
1232.29	0.360773
1241.93	0.362197
1251.58	0.363434
1261.22	0.364297
1270.86	0.365815
1280.5	0.367578
1290.14	0.368999
1299.79	0.370687
1309.43	0.371832
1319.07	0.373029
1328.71	0.374311
1338.36	0.375973
1348	0.377516
1357.64	0.379678
1367.28	0.381717
1376.92	0.383275
1386.57	0.384055
1396.21	0.385402
1405.85	0.387005
1415.49	0.38814
1425.14	0.389717
1434.78	0.391418
1444.42	0.393271
1454.06	0.395408
1463.71	0.396887
1473.35	0.397456
1482.99	0.39803
1492.63	0.399903
1502.28	0.401311
1511.92	0.402658
1521.56	0.403707
1531.2	0.404884
1540.85	0.406835
1550.49	0.407893
1560.13	0.409365
1569.77	0.41068
1579.41	0.4118
1589.06	0.413226
1598.7	0.414684
1608.34	0.415758
1617.98	0.417146
1627.63	0.418308
1637.27	0.419742
1646.91	0.420875
1656.55	0.421662
1666.19	0.423264
1675.84	0.424461
1685.48	0.426417
1695.12	0.427781
1704.77	0.429728
1714.41	0.431414
1724.05	0.433092
1733.69	0.435576
1743.33	0.435609
1752.98	0.435673
1762.62	0.436773
1772.26	0.437901
1781.9	0.438072
1791.55	0.439092
1801.19	0.439134
1810.83	0.439949
1820.47	0.440564
1830.12	0.441064
1839.76	0.441627
1849.4	0.442794
1859.04	0.443731
1868.68	0.44467
1878.33	0.444968
1887.97	0.445781
1897.61	0.4472
1907.25	0.449153
1916.9	0.450153
1926.54	0.451482
1936.18	0.451724
1945.82	0.452685
1955.46	0.451952
1965.11	0.458093
1974.75	0.457132
1984.39	0.458988
1994.04	0.462078
2003.68	0.459896
2013.32	0.465423
2022.96	0.464613
2032.6	0.467733
2042.25	0.468874
2051.89	0.469205
2061.53	0.467719
2071.17	0.470765
2080.82	0.47207
2090.46	0.472452
2100.1	0.47471
2109.74	0.474523
2119.39	0.475442
2129.03	0.478162
2138.67	0.478782
2148.31	0.481638
2157.95	0.486272
2167.6	0.481317
2177.24	0.482951
2186.88	0.484478
2196.52	0.486997
2206.17	0.48494
2215.81	0.485754
2225.45	0.487086
2235.09	0.490005
2244.74	0.489747
2254.38	0.490833
2264.02	0.490681
2273.66	0.493213
2283.3	0.494125
2292.95	0.494329
2302.59	0.497039
2312.23	0.496941
2321.87	0.498695
2331.52	0.500276
2341.16	0.501167
2350.8	0.5023
2360.44	0.503493
2370.09	0.50495
2379.73	0.505017
2389.37	0.505414
2399.01	0.505598
2408.66	0.507042
2418.3	0.507522
2427.94	0.508482
2437.58	0.508685
2447.22	0.50959
2456.87	0.510824
2466.51	0.512091
2476.15	0.513383
2485.79	0.512746
2495.44	0.513972
2505.08	0.515566
2514.72	0.51654
2524.36	0.517574
2534.01	0.518963
2543.65	0.520315
2553.29	0.52106
2562.93	0.521974
2572.57	0.523554
2582.22	0.524729
2591.86	0.526362
2601.5	0.527481
2611.14	0.528954
2620.79	0.530882
2630.43	0.53243
2640.07	0.534357
2649.71	0.536306
2659.36	0.537521
2669	0.5394
2678.64	0.539961
2688.28	0.541268
2697.93	0.542446
2707.57	0.543225
2717.21	0.543951
2726.85	0.54501
2736.49	0.545845
2746.14	0.546844
2755.78	0.547382
2765.42	0.548535
2775.06	0.549172
2784.71	0.550256
2794.35	0.550948
2803.99	0.551851
2813.63	0.55289
2823.28	0.554898
2832.92	0.55562
2842.56	0.557384
2852.2	0.558666
2861.84	0.559516
2871.49	0.560806
2881.13	0.561973
2890.77	0.563317
2900.41	0.564536
2910.06	0.566274
2919.7	0.567069
2929.34	0.56772
2938.98	0.568008
2948.62	0.569193
2958.27	0.570656
2967.91	0.569909
2977.55	0.569264
2987.2	0.569338
2996.84	0.570526
3006.48	0.570964
3016.12	0.571777
3025.76	0.572543
3035.41	0.57362
3045.05	0.574365
3054.69	0.575327
3064.33	0.576225
3073.98	0.577202
3083.62	0.578713
3093.26	0.578477
3102.9	0.579566
3112.55	0.580422
3122.19	0.581323
3131.83	0.582182
3141.47	0.582423
3151.11	0.583788
3160.76	0.585611
3170.4	0.587385
3180.04	0.587521
3189.68	0.588964
3199.33	0.588976
3208.97	0.590816
3218.61	0.591308
3228.25	0.592885
3237.9	0.593238
3247.54	0.594613
3257.18	0.596407
3266.82	0.597016
3276.47	0.599198
3286.11	0.599784
3295.75	0.60147
3305.39	0.601737
3315.03	0.601954
3324.68	0.602626
3334.32	0.604495
3343.96	0.604832
3353.6	0.606034
3363.25	0.606236
3372.89	0.606869
3382.53	0.609315
3392.17	0.609237
3401.82	0.610576
3411.46	0.610872
3421.1	0.612446
3430.74	0.612915
3440.39	0.614668
3450.03	0.615365
3459.67	0.616031
3469.31	0.617372
3478.95	0.618242
3488.6	0.619587
3498.24	0.619328
3507.88	0.620634
3517.52	0.621201
3527.17	0.62265
3536.81	0.623287
3546.45	0.623418
3556.09	0.624337
3565.74	0.62493
3575.38	0.625816
3585.02	0.627259
3594.66	0.627132
3604.3	0.628741
3613.95	0.629942
3623.59	0.631152
3633.23	0.631473
3642.87	0.633038
3652.52	0.634482
3662.16	0.635952
3671.8	0.636791
3681.44	0.637135
3691.09	0.63824
3700.73	0.639882
3710.37	0.640467
3720.01	0.641339
3729.66	0.642654
3739.3	0.645408
3748.94	0.645654
3758.58	0.645471
3768.22	0.646377
3777.87	0.647757
3787.51	0.647851
3797.15	0.650214
3806.79	0.651067
3816.44	0.651428
3826.08	0.652344
3835.72	0.653396
3845.36	0.654637
3855.01	0.656298
3864.65	0.655913
3874.29	0.656034
3883.93	0.657223
3893.57	0.658286
3903.22	0.659525
3912.86	0.660184
3922.5	0.66085
3932.14	0.661826
3941.79	0.661609
3951.43	0.663196
3961.07	0.664322
3970.71	0.666001
3980.36	0.666094
3990	0.666674
3999.64	0.668835
