Measurement: Infrared, Infrared Data Processed
Mineral: Stibnite
Rruff sample: R050016
Ideal chemistry: Sb^3+^_2_S^2-^_3_
Locality: Romania
Source: Eugene Schlepp
Description: Group of lead-gray prismatic crystals
Measured chemistry: (Sb_.996_As_.004_)_2_S_3_
x	intensity
399.193	0.165661
408.835	0.194558
418.477	0.213233
428.12	0.230382
437.762	0.245704
447.404	0.259725
457.047	0.273774
466.689	0.283189
476.331	0.29361
485.974	0.30137
495.616	0.311603
505.258	0.322824
514.901	0.329973
524.543	0.336979
534.185	0.343143
543.828	0.350713
553.47	0.358864
563.112	0.363771
572.755	0.370913
582.397	0.377648
592.039	0.383575
601.682	0.388883
611.324	0.395199
620.966	0.40052
630.609	0.406297
640.251	0.410778
649.893	0.414646
659.536	0.41973
669.178	0.426092
678.82	0.429996
688.463	0.435665
698.105	0.44076
707.747	0.446122
717.39	0.44978
727.032	0.45499
736.674	0.457994
746.317	0.462178
755.959	0.465284
765.601	0.468867
775.244	0.472213
784.886	0.476899
794.528	0.481249
804.171	0.485208
813.813	0.48997
823.455	0.493333
833.098	0.496372
842.74	0.499705
852.382	0.503156
862.025	0.508167
871.667	0.512052
881.309	0.515111
890.952	0.517969
900.594	0.521728
910.236	0.526051
919.879	0.530139
929.521	0.534598
939.163	0.538078
948.806	0.542217
958.448	0.546557
968.09	0.550825
977.733	0.555511
987.375	0.561458
997.017	0.566168
1006.66	0.571369
1016.3	0.57739
1025.94	0.581347
1035.59	0.585938
1045.23	0.588661
1054.87	0.591314
1064.51	0.59331
1074.16	0.596588
1083.8	0.599183
1093.44	0.601307
1103.08	0.604045
1112.72	0.606122
1122.37	0.609083
1132.01	0.612192
1141.65	0.619692
1151.3	0.622155
1160.94	0.62235
1170.58	0.62252
1180.22	0.623682
1189.86	0.627396
1199.51	0.631873
1209.15	0.634929
1218.79	0.637394
1228.43	0.639682
1238.08	0.642059
1247.72	0.644523
1257.36	0.646505
1267	0.64872
1276.64	0.651734
1286.29	0.654468
1295.93	0.658195
1305.57	0.661326
1315.21	0.664332
1324.86	0.667472
1334.5	0.670959
1344.14	0.673592
1353.78	0.676452
1363.43	0.680349
1373.07	0.683623
1382.71	0.686029
1392.35	0.689048
1401.99	0.692106
1411.64	0.695419
1421.28	0.699178
1430.92	0.702442
1440.57	0.704894
1450.21	0.708424
1459.85	0.711327
1469.49	0.712644
1479.13	0.714462
1488.78	0.717233
1498.42	0.719808
1508.06	0.723229
1517.7	0.725091
1527.35	0.727309
1536.99	0.72991
1546.63	0.733107
1556.27	0.736003
1565.91	0.739251
1575.56	0.743423
1585.2	0.746593
1594.84	0.74906
1604.48	0.752077
1614.13	0.754673
1623.77	0.757364
1633.41	0.760548
1643.05	0.762559
1652.7	0.765581
1662.34	0.767476
1671.98	0.769168
1681.62	0.77092
1691.27	0.773144
1700.91	0.775551
1710.55	0.777042
1720.19	0.780172
1729.84	0.783528
1739.48	0.785728
1749.12	0.786481
1758.76	0.788423
1768.4	0.790991
1778.05	0.793717
1787.69	0.795207
1797.33	0.795887
1806.97	0.79869
1816.62	0.80076
1826.26	0.803121
1835.9	0.805916
1845.54	0.807626
1855.18	0.810103
1864.83	0.812475
1874.47	0.814064
1884.11	0.815886
1893.75	0.81977
1903.4	0.821288
1913.04	0.823721
1922.68	0.826533
1932.32	0.8286
1941.97	0.830393
1951.61	0.831798
1961.25	0.834257
1970.89	0.831051
1980.54	0.837523
1990.18	0.837535
1999.82	0.844464
2009.46	0.847317
2019.11	0.845852
2028.75	0.850427
2038.39	0.850153
2048.03	0.854862
2057.67	0.861648
2067.32	0.861385
2076.96	0.865881
2086.6	0.867585
2096.24	0.871178
2105.89	0.87381
2115.53	0.875552
2125.17	0.880975
2134.81	0.879716
2144.45	0.878215
2154.1	0.885704
2163.74	0.880049
2173.38	0.889153
2183.02	0.888996
2192.67	0.890106
2202.31	0.894297
2211.95	0.895942
2221.59	0.898694
2231.24	0.901915
2240.88	0.904479
2250.52	0.907244
2260.16	0.906842
2269.8	0.90948
2279.45	0.912673
2289.09	0.913018
2298.73	0.914304
2308.38	0.916663
2318.02	0.91744
2327.66	0.918005
2337.3	0.921095
2346.94	0.923513
2356.59	0.924241
2366.23	0.927251
2375.87	0.930689
2385.51	0.932828
2395.16	0.935428
2404.8	0.935006
2414.44	0.939215
2424.08	0.941331
2433.72	0.942898
2443.37	0.944794
2453.01	0.946613
2462.65	0.948138
2472.29	0.950693
2481.94	0.953031
2491.58	0.954718
2501.22	0.956421
2510.86	0.959051
2520.51	0.960557
2530.15	0.962405
2539.79	0.964405
2549.43	0.966997
2559.07	0.969118
2568.72	0.970926
2578.36	0.972982
2588	0.976075
2597.64	0.977275
2607.29	0.979999
2616.93	0.981324
2626.57	0.983334
2636.21	0.985492
2645.86	0.988083
2655.5	0.989858
2665.14	0.991242
2674.78	0.993008
2684.43	0.994787
2694.07	0.996707
2703.71	0.9993
2713.35	1.00166
2722.99	1.00247
2732.64	1.00476
2742.28	1.00675
2751.92	1.00928
2761.56	1.0104
2771.21	1.01245
2780.85	1.01383
2790.49	1.01729
2800.13	1.01817
2809.78	1.02068
2819.42	1.02324
2829.06	1.02551
2838.7	1.0282
2848.34	1.03042
2857.99	1.03256
2867.63	1.03423
2877.27	1.03655
2886.91	1.03852
2896.56	1.04127
2906.2	1.04308
2915.84	1.04541
2925.48	1.04661
2935.13	1.04838
2944.77	1.04915
2954.41	1.04974
2964.05	1.0497
2973.7	1.05075
2983.34	1.05253
2992.98	1.05291
3002.62	1.05455
3012.26	1.05631
3021.91	1.05815
3031.55	1.06077
3041.19	1.0627
3050.83	1.06378
3060.48	1.06698
3070.12	1.06887
3079.76	1.07137
3089.4	1.07364
3099.05	1.07456
3108.69	1.07725
3118.33	1.07909
3127.97	1.08084
3137.61	1.08305
3147.26	1.0839
3156.9	1.08714
3166.54	1.08854
3176.18	1.09121
3185.83	1.09287
3195.47	1.09431
3205.11	1.09806
3214.75	1.09883
3224.4	1.10256
3234.04	1.1052
3243.68	1.10458
3253.32	1.10766
3262.97	1.10912
3272.61	1.11236
3282.25	1.11522
3291.89	1.11644
3301.53	1.11865
3311.18	1.12122
3320.82	1.12243
3330.46	1.12422
3340.1	1.12645
3349.75	1.12731
3359.39	1.1288
3369.03	1.13099
3378.67	1.13272
3388.32	1.13382
3397.96	1.13485
3407.6	1.13667
3417.24	1.13779
3426.89	1.13938
3436.53	1.14119
3446.17	1.14221
3455.81	1.14202
3465.45	1.14595
3475.1	1.14725
3484.74	1.14649
3494.38	1.14827
3504.02	1.14983
3513.67	1.15057
3523.31	1.15122
3532.95	1.1524
3542.59	1.15423
3552.24	1.15363
3561.88	1.15552
3571.52	1.15534
3581.16	1.15688
3590.8	1.15726
3600.45	1.15844
3610.09	1.15973
3619.73	1.16022
3629.37	1.1611
3639.02	1.16012
3648.66	1.16219
3658.3	1.16456
3667.94	1.16465
3677.59	1.16604
3687.23	1.16797
3696.87	1.17016
3706.51	1.17186
3716.16	1.17123
3725.8	1.17283
3735.44	1.17494
3745.08	1.17776
3754.72	1.17716
3764.37	1.18047
3774.01	1.18088
3783.65	1.18399
3793.29	1.1847
3802.94	1.18624
3812.58	1.18849
3822.22	1.19006
3831.86	1.19053
3841.51	1.19399
3851.15	1.19409
3860.79	1.19701
3870.43	1.19703
3880.07	1.19918
3889.72	1.19886
3899.36	1.20017
3909	1.20348
3918.64	1.20304
3928.29	1.20764
3937.93	1.2059
3947.57	1.2066
3957.21	1.20791
3966.86	1.21106
3976.5	1.21126
3986.14	1.21227
3995.78	1.2155
