Measurement: Infrared, Infrared Data Processed
Mineral: Stibiotantalite
Rruff sample: R050599
Ideal chemistry: Sb^3+^Ta^5+^O_4_
Locality: Shengus, Pakistan
Source: Wayne Thompson
Description: Yellow fragment
Measured chemistry: Sb_1.00_(Ta_0.88_Nb_0.11_)_Î£=1_O_4_
x	intensity
399.193	0.240356
408.835	0.259254
418.477	0.237793
428.12	0.206664
437.762	0.182941
447.404	0.208074
457.047	0.248817
466.689	0.26751
476.331	0.269695
485.974	0.26673
495.616	0.269624
505.258	0.295424
514.901	0.331172
524.543	0.35799
534.185	0.373822
543.828	0.376412
553.47	0.37421
563.112	0.363838
572.755	0.34895
582.397	0.33364
592.039	0.316312
601.682	0.291583
611.324	0.263867
620.966	0.238807
630.609	0.222981
640.251	0.20942
649.893	0.195156
659.536	0.183933
669.178	0.182905
678.82	0.195409
688.463	0.199002
698.105	0.178533
707.747	0.156694
717.39	0.139543
727.032	0.127543
736.674	0.118718
746.317	0.11234
755.959	0.104398
765.601	0.0932741
775.244	0.078054
784.886	0.0635455
794.528	0.0494561
804.171	0.0379646
813.813	0.030389
823.455	0.0259151
833.098	0.0237361
842.74	0.0211452
852.382	0.0203933
862.025	0.0191997
871.667	0.0188882
881.309	0.018252
890.952	0.0185582
900.594	0.0191417
910.236	0.0194157
919.879	0.0203663
929.521	0.0204625
939.163	0.0194009
948.806	0.0180223
958.448	0.0176451
968.09	0.0177339
977.733	0.01789
987.375	0.0183941
997.017	0.0186702
1006.66	0.0194232
1016.3	0.0197841
1025.94	0.0194683
1035.59	0.0197044
1045.23	0.0202357
1054.87	0.0203425
1064.51	0.0206895
1074.16	0.0215463
1083.8	0.0226286
1093.44	0.02314
1103.08	0.0239769
1112.72	0.0248975
1122.37	0.0256745
1132.01	0.0271988
1141.65	0.0283797
1151.3	0.0296501
1160.94	0.0306405
1170.58	0.0317286
1180.22	0.0334376
1189.86	0.0352429
1199.51	0.0365719
1209.15	0.0382879
1218.79	0.0399643
1228.43	0.041463
1238.08	0.0433448
1247.72	0.0442685
1257.36	0.0460835
1267	0.0479039
1276.64	0.0494527
1286.29	0.050736
1295.93	0.0522433
1305.57	0.0541092
1315.21	0.0556829
1324.86	0.0573318
1334.5	0.0589596
1344.14	0.060352
1353.78	0.0620554
1363.43	0.0634479
1373.07	0.0650892
1382.71	0.0668483
1392.35	0.0686116
1401.99	0.0709558
1411.64	0.0724148
1421.28	0.0744323
1430.92	0.0762775
1440.57	0.0779641
1450.21	0.0790048
1459.85	0.0795417
1469.49	0.0816106
1479.13	0.0846165
1488.78	0.08685
1498.42	0.0889997
1508.06	0.0904657
1517.7	0.0922514
1527.35	0.093868
1536.99	0.0954854
1546.63	0.0976108
1556.27	0.0987063
1565.91	0.100171
1575.56	0.101707
1585.2	0.102906
1594.84	0.104071
1604.48	0.105436
1614.13	0.106888
1623.77	0.108493
1633.41	0.110555
1643.05	0.111684
1652.7	0.113669
1662.34	0.114631
1671.98	0.115799
1681.62	0.117417
1691.27	0.118688
1700.91	0.12015
1710.55	0.12042
1720.19	0.121707
1729.84	0.122032
1739.48	0.120741
1749.12	0.123899
1758.76	0.128152
1768.4	0.130622
1778.05	0.132422
1787.69	0.133985
1797.33	0.135765
1806.97	0.136747
1816.62	0.13793
1826.26	0.140252
1835.9	0.140063
1845.54	0.142384
1855.18	0.143257
1864.83	0.144658
1874.47	0.146201
1884.11	0.14768
1893.75	0.148637
1903.4	0.14992
1913.04	0.152943
1922.68	0.152621
1932.32	0.154854
1941.97	0.155777
1951.61	0.155838
1961.25	0.15954
1970.89	0.160596
1980.54	0.164494
1990.18	0.165346
1999.82	0.165124
2009.46	0.165935
2019.11	0.16541
2028.75	0.168092
2038.39	0.169535
2048.03	0.16999
2057.67	0.169501
2067.32	0.170493
2076.96	0.173862
2086.6	0.169515
2096.24	0.171968
2105.89	0.175059
2115.53	0.176905
2125.17	0.175106
2134.81	0.177954
2144.45	0.176843
2154.1	0.178643
2163.74	0.184332
2173.38	0.180333
2183.02	0.183374
2192.67	0.184725
2202.31	0.186254
2211.95	0.184218
2221.59	0.187787
2231.24	0.18814
2240.88	0.188549
2250.52	0.18984
2260.16	0.191443
2269.8	0.192716
2279.45	0.192752
2289.09	0.194695
2298.73	0.194347
2308.38	0.194766
2318.02	0.197678
2327.66	0.197373
2337.3	0.197408
2346.94	0.198733
2356.59	0.199913
2366.23	0.20092
2375.87	0.200622
2385.51	0.200763
2395.16	0.20333
2404.8	0.20373
2414.44	0.203615
2424.08	0.203237
2433.72	0.207472
2443.37	0.210136
2453.01	0.207668
2462.65	0.208039
2472.29	0.209847
2481.94	0.208933
2491.58	0.211481
2501.22	0.213641
2510.86	0.214067
2520.51	0.214902
2530.15	0.214879
2539.79	0.215036
2549.43	0.216513
2559.07	0.217189
2568.72	0.219774
2578.36	0.218379
2588	0.219368
2597.64	0.219016
2607.29	0.220033
2616.93	0.221673
2626.57	0.222274
2636.21	0.222755
2645.86	0.223318
2655.5	0.222677
2665.14	0.224405
2674.78	0.226207
2684.43	0.225669
2694.07	0.226279
2703.71	0.228135
2713.35	0.228949
2722.99	0.228822
2732.64	0.230313
2742.28	0.2302
2751.92	0.23216
2761.56	0.233413
2771.21	0.234039
2780.85	0.234181
2790.49	0.234608
2800.13	0.235621
2809.78	0.236499
2819.42	0.237
2829.06	0.237913
2838.7	0.238943
2848.34	0.237988
2857.99	0.237336
2867.63	0.240005
2877.27	0.239719
2886.91	0.239965
2896.56	0.240356
2906.2	0.239625
2915.84	0.241977
2925.48	0.240401
2935.13	0.243329
2944.77	0.24458
2954.41	0.245869
2964.05	0.248061
2973.7	0.245092
2983.34	0.248712
2992.98	0.249938
3002.62	0.252372
3012.26	0.251875
3021.91	0.253354
3031.55	0.252902
3041.19	0.25552
3050.83	0.253424
3060.48	0.256019
3070.12	0.254564
3079.76	0.257671
3089.4	0.259267
3099.05	0.259665
3108.69	0.258862
3118.33	0.259333
3127.97	0.263548
3137.61	0.263086
3147.26	0.261112
3156.9	0.263792
3166.54	0.261895
3176.18	0.262964
3185.83	0.265752
3195.47	0.266283
3205.11	0.265849
3214.75	0.264651
3224.4	0.268284
3234.04	0.266199
3243.68	0.268474
3253.32	0.270248
3262.97	0.268884
3272.61	0.272829
3282.25	0.272292
3291.89	0.272032
3301.53	0.272809
3311.18	0.27299
3320.82	0.275568
3330.46	0.277761
3340.1	0.27294
3349.75	0.278956
3359.39	0.272754
3369.03	0.27778
3378.67	0.282618
3388.32	0.279117
3397.96	0.279004
3407.6	0.280758
3417.24	0.280374
3426.89	0.280911
3436.53	0.281642
3446.17	0.281901
3455.81	0.282849
3465.45	0.286955
3475.1	0.285951
3484.74	0.285092
3494.38	0.286086
3504.02	0.286725
3513.67	0.2917
3523.31	0.290302
3532.95	0.289517
3542.59	0.287317
3552.24	0.288273
3561.88	0.293358
3571.52	0.294183
3581.16	0.293515
3590.8	0.295173
3600.45	0.295914
3610.09	0.297224
3619.73	0.297926
3629.37	0.294389
3639.02	0.298602
3648.66	0.303899
3658.3	0.301152
3667.94	0.299507
3677.59	0.303633
3687.23	0.302362
3696.87	0.300531
3706.51	0.30705
3716.16	0.306869
3725.8	0.30573
3735.44	0.308495
3745.08	0.311878
3754.72	0.310231
3764.37	0.310045
3774.01	0.307258
3783.65	0.311564
3793.29	0.312875
3802.94	0.310653
3812.58	0.310194
3822.22	0.315151
3831.86	0.315271
3841.51	0.318189
3851.15	0.318149
3860.79	0.318687
3870.43	0.316901
3880.07	0.317733
3889.72	0.323203
3899.36	0.321595
3909	0.329612
3918.64	0.323541
3928.29	0.327726
3937.93	0.325806
3947.57	0.321775
3957.21	0.325755
3966.86	0.326237
3976.5	0.329005
3986.14	0.328681
3995.78	0.332267
