Measurement: Infrared, Infrared Data Processed
Mineral: Stichtite
Rruff sample: R050328
Ideal chemistry: Mg_6_Cr^3+^_2_CO_3_(OH)_16_4H_2_O
Locality: Dundas, Tasmania, Australia
Source: Marcus Origlieri
Description: Aggregate of contorted purple plates
Measured chemistry: Mg_6.00_(Cr_1.11_Al_0.71_Fe^3+^_0.18_)_Σ=2_(CO_3_)(OH)_16_·4H_2_O
x	intensity
399.193	0.408145
408.835	0.353344
418.477	0.320429
428.12	0.293742
437.762	0.281358
447.404	0.25824
457.047	0.236381
466.689	0.217164
476.331	0.20254
485.974	0.196011
495.616	0.197761
505.258	0.205836
514.901	0.218298
524.543	0.228002
534.185	0.218529
543.828	0.22468
553.47	0.241043
563.112	0.261921
572.755	0.282454
582.397	0.300449
592.039	0.311146
601.682	0.323365
611.324	0.333385
620.966	0.321817
630.609	0.298593
640.251	0.274074
649.893	0.260116
659.536	0.253535
669.178	0.24498
678.82	0.233942
688.463	0.220822
698.105	0.207966
707.747	0.197097
717.39	0.187276
727.032	0.177831
736.674	0.167388
746.317	0.159503
755.959	0.153862
765.601	0.149603
775.244	0.147639
784.886	0.144407
794.528	0.140534
804.171	0.138004
813.813	0.134523
823.455	0.130867
833.098	0.12885
842.74	0.126952
852.382	0.123074
862.025	0.118229
871.667	0.113438
881.309	0.10999
890.952	0.109291
900.594	0.10942
910.236	0.11359
919.879	0.123811
929.521	0.138356
939.163	0.155954
948.806	0.172425
958.448	0.175037
968.09	0.160143
977.733	0.143142
987.375	0.145507
997.017	0.153421
1006.66	0.143534
1016.3	0.119186
1025.94	0.0973078
1035.59	0.0909532
1045.23	0.0932262
1054.87	0.0917192
1064.51	0.0843405
1074.16	0.0749344
1083.8	0.0682592
1093.44	0.057193
1103.08	0.0475897
1112.72	0.0437376
1122.37	0.0424898
1132.01	0.0424423
1141.65	0.0424464
1151.3	0.0431276
1160.94	0.0438699
1170.58	0.0451814
1180.22	0.0468533
1189.86	0.0486745
1199.51	0.0502286
1209.15	0.051554
1218.79	0.0530632
1228.43	0.0541413
1238.08	0.0558099
1247.72	0.0575108
1257.36	0.0598303
1267	0.0620219
1276.64	0.0653488
1286.29	0.0682059
1295.93	0.0708154
1305.57	0.0741402
1315.21	0.0785414
1324.86	0.0856195
1334.5	0.0980813
1344.14	0.115476
1353.78	0.135965
1363.43	0.15024
1373.07	0.152444
1382.71	0.146025
1392.35	0.135748
1401.99	0.122292
1411.64	0.107205
1421.28	0.0915417
1430.92	0.0778063
1440.57	0.0678558
1450.21	0.0607952
1459.85	0.056201
1469.49	0.0527582
1479.13	0.0522705
1488.78	0.0519331
1498.42	0.0517915
1508.06	0.0522362
1517.7	0.0514905
1527.35	0.0526757
1536.99	0.0544436
1546.63	0.0565722
1556.27	0.0602312
1565.91	0.0626782
1575.56	0.0672408
1585.2	0.0698202
1594.84	0.0741044
1604.48	0.0766306
1614.13	0.0778914
1623.77	0.0788548
1633.41	0.0790233
1643.05	0.0779969
1652.7	0.0755938
1662.34	0.0675482
1671.98	0.0595418
1681.62	0.0510945
1691.27	0.0438738
1700.91	0.0389743
1710.55	0.0331449
1720.19	0.0308348
1729.84	0.0280282
1739.48	0.0231941
1749.12	0.021356
1758.76	0.0227191
1768.4	0.0236389
1778.05	0.0231579
1787.69	0.0215685
1797.33	0.0222858
1806.97	0.0214814
1816.62	0.0213407
1826.26	0.0208062
1835.9	0.0210754
1845.54	0.0191307
1855.18	0.0194266
1864.83	0.0195576
1874.47	0.0186713
1884.11	0.017544
1893.75	0.0171381
1903.4	0.0189926
1913.04	0.0193908
1922.68	0.0178609
1932.32	0.0160708
1941.97	0.0168713
1951.61	0.0168337
1961.25	0.0162119
1970.89	0.0160811
1980.54	0.0164009
1990.18	0.0162743
1999.82	0.0175653
2009.46	0.016229
2019.11	0.0179805
2028.75	0.0158391
2038.39	0.0158473
2048.03	0.0160925
2057.67	0.0139541
2067.32	0.0187871
2076.96	0.0162081
2086.6	0.0178817
2096.24	0.0138898
2105.89	0.0161364
2115.53	0.0161798
2125.17	0.012756
2134.81	0.0117939
2144.45	0.0113278
2154.1	0.0112636
2163.74	0.015775
2173.38	0.0127396
2183.02	0.0138012
2192.67	0.0169264
2202.31	0.0151218
2211.95	0.0159887
2221.59	0.0146619
2231.24	0.0156025
2240.88	0.0158017
2250.52	0.015318
2260.16	0.0140288
2269.8	0.0163032
2279.45	0.0175266
2289.09	0.0165357
2298.73	0.0167648
2308.38	0.0164946
2318.02	0.0168655
2327.66	0.0176707
2337.3	0.0181534
2346.94	0.0163028
2356.59	0.0177862
2366.23	0.0187254
2375.87	0.0173202
2385.51	0.0161726
2395.16	0.0165236
2404.8	0.0172315
2414.44	0.0179718
2424.08	0.0173388
2433.72	0.0179892
2443.37	0.0194183
2453.01	0.0180656
2462.65	0.0188798
2472.29	0.0175028
2481.94	0.0173291
2491.58	0.0180184
2501.22	0.0199444
2510.86	0.0205537
2520.51	0.0172629
2530.15	0.0197198
2539.79	0.0178206
2549.43	0.0189942
2559.07	0.0185894
2568.72	0.0186011
2578.36	0.0190173
2588	0.0188579
2597.64	0.0224938
2607.29	0.0195314
2616.93	0.0203386
2626.57	0.0206851
2636.21	0.021145
2645.86	0.0238705
2655.5	0.0228784
2665.14	0.022503
2674.78	0.0235731
2684.43	0.0248
2694.07	0.0250707
2703.71	0.0255094
2713.35	0.0272487
2722.99	0.027068
2732.64	0.0278283
2742.28	0.0290633
2751.92	0.0308517
2761.56	0.0320745
2771.21	0.0341294
2780.85	0.0346366
2790.49	0.0355121
2800.13	0.0371979
2809.78	0.0403139
2819.42	0.0409745
2829.06	0.0433424
2838.7	0.0444574
2848.34	0.0467562
2857.99	0.0503604
2867.63	0.0518777
2877.27	0.0546904
2886.91	0.0529996
2896.56	0.056412
2906.2	0.0591958
2915.84	0.0600656
2925.48	0.0630485
2935.13	0.0661125
2944.77	0.0684097
2954.41	0.0681685
2964.05	0.0706133
2973.7	0.0713922
2983.34	0.0741209
2992.98	0.0736494
3002.62	0.0762041
3012.26	0.0785267
3021.91	0.0806155
3031.55	0.0801625
3041.19	0.0850565
3050.83	0.0859326
3060.48	0.0889019
3070.12	0.089187
3079.76	0.0928372
3089.4	0.0939081
3099.05	0.0978193
3108.69	0.0989672
3118.33	0.0999563
3127.97	0.0997082
3137.61	0.107257
3147.26	0.10779
3156.9	0.109181
3166.54	0.111481
3176.18	0.114642
3185.83	0.115646
3195.47	0.118378
3205.11	0.124368
3214.75	0.127462
3224.4	0.134608
3234.04	0.135135
3243.68	0.139796
3253.32	0.14146
3262.97	0.149866
3272.61	0.149765
3282.25	0.158188
3291.89	0.160973
3301.53	0.169631
3311.18	0.177158
3320.82	0.185559
3330.46	0.196979
3340.1	0.202145
3349.75	0.214327
3359.39	0.225989
3369.03	0.23541
3378.67	0.249667
3388.32	0.26167
3397.96	0.275407
3407.6	0.286784
3417.24	0.301435
3426.89	0.316533
3436.53	0.33143
3446.17	0.339384
3455.81	0.344192
3465.45	0.353206
3475.1	0.354809
3484.74	0.356715
3494.38	0.353139
3504.02	0.349691
3513.67	0.345467
3523.31	0.339199
3532.95	0.326921
3542.59	0.318852
3552.24	0.304655
3561.88	0.296966
3571.52	0.285699
3581.16	0.269383
3590.8	0.263957
3600.45	0.252899
3610.09	0.243781
3619.73	0.224413
3629.37	0.209406
3639.02	0.180531
3648.66	0.151293
3658.3	0.116709
3667.94	0.0842661
3677.59	0.0566925
3687.23	0.038058
3696.87	0.0146429
3706.51	-0.000128702
3716.16	-0.00407284
3725.8	-0.00615391
3735.44	-0.00102425
3745.08	-0.0051166
3754.72	-0.00808791
3764.37	-0.00676052
3774.01	-0.00677086
3783.65	-0.00551844
3793.29	-0.00754967
3802.94	-0.0084603
3812.58	-0.00839315
3822.22	-0.00909063
3831.86	-0.00813543
3841.51	-0.00435064
3851.15	-0.0060552
3860.79	-0.00667671
3870.43	-0.00547066
3880.07	-0.00647955
3889.72	-0.00631783
3899.36	-0.0052246
3909	-0.00838672
3918.64	-0.00871165
3928.29	-0.00778828
3937.93	-0.00434375
3947.57	-0.00522725
3957.21	-0.0118689
3966.86	-0.00819613
3976.5	-0.00943869
3986.14	-0.00320136
3995.78	-0.00754342
