Measurement: Infrared, Infrared Data Processed
Mineral: Stilbite-Ca
Rruff sample: R050012
Ideal chemistry: NaCa_4_(Si_27_Al_9_)O_72_28H_2_O
Locality: Harborville, Nova Scotia, Canada
Source: University of Arizona Mineral Museum
Description: Globular aggregate of thin tabular white single crystals
Measured chemistry: (Na_1.50_K_0.03_)_Σ=1.53_Ca_4.15_(Si_26.17_Al_9.83_)O_72_·27.91H_2_O; H_2_O estimated by difference
x	intensity
399.193	0.134326
408.835	0.136078
418.477	0.141783
428.12	0.150062
437.762	0.14853
447.404	0.138287
457.047	0.126043
466.689	0.119345
476.331	0.110622
485.974	0.106135
495.616	0.106655
505.258	0.107298
514.901	0.108567
524.543	0.113803
534.185	0.119998
543.828	0.123156
553.47	0.119613
563.112	0.112566
572.755	0.101442
582.397	0.0901283
592.039	0.0767933
601.682	0.0628363
611.324	0.0503395
620.966	0.0419776
630.609	0.039029
640.251	0.0380775
649.893	0.0393557
659.536	0.0407398
669.178	0.0428094
678.82	0.045641
688.463	0.0438709
698.105	0.0451899
707.747	0.0455504
717.39	0.044717
727.032	0.0427564
736.674	0.0409493
746.317	0.0387097
755.959	0.0358798
765.601	0.0359507
775.244	0.0368103
784.886	0.0358389
794.528	0.0334429
804.171	0.0282687
813.813	0.0226801
823.455	0.0196853
833.098	0.019604
842.74	0.0225161
852.382	0.0221796
862.025	0.0249683
871.667	0.0279931
881.309	0.0320966
890.952	0.0377591
900.594	0.0449477
910.236	0.0544847
919.879	0.0678629
929.521	0.0869629
939.163	0.112134
948.806	0.145941
958.448	0.185669
968.09	0.222175
977.733	0.245883
987.375	0.257557
997.017	0.260454
1006.66	0.258344
1016.3	0.250368
1025.94	0.235945
1035.59	0.217012
1045.23	0.194739
1054.87	0.17165
1064.51	0.145846
1074.16	0.120925
1083.8	0.103582
1093.44	0.092869
1103.08	0.0880459
1112.72	0.0880614
1122.37	0.0914102
1132.01	0.0931259
1141.65	0.0901765
1151.3	0.0827519
1160.94	0.0737639
1170.58	0.0656533
1180.22	0.0579399
1189.86	0.0477382
1199.51	0.0344573
1209.15	0.0229046
1218.79	0.0157907
1228.43	0.0113557
1238.08	0.00894276
1247.72	0.00716835
1257.36	0.00614793
1267	0.00488976
1276.64	0.00480394
1286.29	0.00459031
1295.93	0.00439335
1305.57	0.0045982
1315.21	0.00478544
1324.86	0.00494631
1334.5	0.00490281
1344.14	0.00480418
1353.78	0.00538332
1363.43	0.00637574
1373.07	0.00756606
1382.71	0.0094439
1392.35	0.0123198
1401.99	0.0137648
1411.64	0.0136708
1421.28	0.0133513
1430.92	0.014111
1440.57	0.0146478
1450.21	0.013781
1459.85	0.0123238
1469.49	0.0104559
1479.13	0.00850643
1488.78	0.0067691
1498.42	0.00591083
1508.06	0.00522749
1517.7	0.00459063
1527.35	0.00492022
1536.99	0.00515667
1546.63	0.00540164
1556.27	0.00635146
1565.91	0.00753064
1575.56	0.00769363
1585.2	0.00914833
1594.84	0.0104956
1604.48	0.0128834
1614.13	0.0189552
1623.77	0.0294491
1633.41	0.0384104
1643.05	0.0364178
1652.7	0.0289849
1662.34	0.0228052
1671.98	0.0173677
1681.62	0.013073
1691.27	0.0105373
1700.91	0.00794808
1710.55	0.00686858
1720.19	0.00466913
1729.84	0.00422478
1739.48	0.00299447
1749.12	0.00298098
1758.76	0.0032704
1768.4	0.00308773
1778.05	0.00301801
1787.69	0.00297356
1797.33	0.00252273
1806.97	0.0026673
1816.62	0.00194951
1826.26	0.00244378
1835.9	0.00197772
1845.54	0.00191819
1855.18	0.00225807
1864.83	0.00174807
1874.47	0.00163844
1884.11	0.000215739
1893.75	-1.06951e-06
1903.4	0.000709813
1913.04	-6.20618e-05
1922.68	-0.000597179
1932.32	-0.00174721
1941.97	-0.00246703
1951.61	-0.00325973
1961.25	-0.00454533
1970.89	-0.00667604
1980.54	-0.000352917
1990.18	-0.00443357
1999.82	-0.00440854
2009.46	-0.00477692
2019.11	-0.00461459
2028.75	-0.0046607
2038.39	-0.00248472
2048.03	-0.000771162
2057.67	-0.000443452
2067.32	-0.000876028
2076.96	0.000799213
2086.6	0.00051903
2096.24	-0.000160009
2105.89	0.000659111
2115.53	0.00151709
2125.17	-0.000797488
2134.81	-0.00156327
2144.45	-0.00226586
2154.1	-0.00395081
2163.74	0.00228163
2173.38	0.000934669
2183.02	-0.000853102
2192.67	0.00199398
2202.31	0.0025509
2211.95	9.2856e-05
2221.59	0.00340379
2231.24	0.00176841
2240.88	0.00298716
2250.52	0.00179463
2260.16	0.00194282
2269.8	0.00419739
2279.45	0.0041031
2289.09	0.00566176
2298.73	0.00538114
2308.38	0.00574683
2318.02	0.00619339
2327.66	0.00529373
2337.3	0.00525219
2346.94	0.00414574
2356.59	0.00463334
2366.23	0.00364828
2375.87	0.00350341
2385.51	0.00398789
2395.16	0.0032447
2404.8	0.00400638
2414.44	0.00494214
2424.08	0.00398168
2433.72	0.00469982
2443.37	0.00491484
2453.01	0.00550837
2462.65	0.00521918
2472.29	0.00563545
2481.94	0.00508434
2491.58	0.00479495
2501.22	0.00500038
2510.86	0.0051796
2520.51	0.00579408
2530.15	0.0045946
2539.79	0.00565101
2549.43	0.00598317
2559.07	0.00551274
2568.72	0.0072678
2578.36	0.00590851
2588	0.00636663
2597.64	0.00641935
2607.29	0.00634977
2616.93	0.00691445
2626.57	0.00751832
2636.21	0.00673269
2645.86	0.00674193
2655.5	0.00726539
2665.14	0.00641476
2674.78	0.00551817
2684.43	0.00605891
2694.07	0.00587182
2703.71	0.00683431
2713.35	0.00643448
2722.99	0.00644339
2732.64	0.00648068
2742.28	0.00634856
2751.92	0.00662935
2761.56	0.00742303
2771.21	0.00763252
2780.85	0.00701475
2790.49	0.00712387
2800.13	0.0078221
2809.78	0.0074824
2819.42	0.00694008
2829.06	0.00789791
2838.7	0.00748381
2848.34	0.0073403
2857.99	0.00862211
2867.63	0.00819079
2877.27	0.00917543
2886.91	0.00966698
2896.56	0.0102938
2906.2	0.00997587
2915.84	0.00915648
2925.48	0.0109796
2935.13	0.0112044
2944.77	0.0116062
2954.41	0.010038
2964.05	0.0115142
2973.7	0.0129018
2983.34	0.0129441
2992.98	0.0137404
3002.62	0.0141201
3012.26	0.013756
3021.91	0.0155716
3031.55	0.0158412
3041.19	0.0151989
3050.83	0.0154947
3060.48	0.0181256
3070.12	0.0188052
3079.76	0.0190163
3089.4	0.0198065
3099.05	0.0216137
3108.69	0.0209524
3118.33	0.0225482
3127.97	0.0233789
3137.61	0.0260601
3147.26	0.0278517
3156.9	0.0292014
3166.54	0.0282323
3176.18	0.0316064
3185.83	0.0320624
3195.47	0.0343878
3205.11	0.0356427
3214.75	0.0384345
3224.4	0.0380581
3234.04	0.0404973
3243.68	0.0403284
3253.32	0.0414126
3262.97	0.0413338
3272.61	0.041188
3282.25	0.0417988
3291.89	0.0426283
3301.53	0.042913
3311.18	0.0435965
3320.82	0.044253
3330.46	0.0443505
3340.1	0.0479116
3349.75	0.0471654
3359.39	0.0487361
3369.03	0.0491472
3378.67	0.0505568
3388.32	0.0517603
3397.96	0.0512157
3407.6	0.0504903
3417.24	0.050479
3426.89	0.0495146
3436.53	0.0506547
3446.17	0.0509514
3455.81	0.0505395
3465.45	0.0522502
3475.1	0.0503696
3484.74	0.0516833
3494.38	0.0492257
3504.02	0.0498577
3513.67	0.0498588
3523.31	0.0478048
3532.95	0.0471234
3542.59	0.0469021
3552.24	0.0449522
3561.88	0.0462471
3571.52	0.0448766
3581.16	0.0417123
3590.8	0.0414008
3600.45	0.0390524
3610.09	0.0371463
3619.73	0.0282069
3629.37	0.0255359
3639.02	0.0171003
3648.66	0.0150962
3658.3	0.0106707
3667.94	0.00832678
3677.59	0.00934317
3687.23	0.00595013
3696.87	0.00526369
3706.51	0.00669057
3716.16	0.00441621
3725.8	0.00413811
3735.44	0.00441186
3745.08	0.00521933
3754.72	0.00655177
3764.37	0.00416524
3774.01	0.00496611
3783.65	0.00537834
3793.29	0.00590328
3802.94	0.0058208
3812.58	0.00771983
3822.22	0.00668511
3831.86	0.00373129
3841.51	0.00449906
3851.15	0.00465855
3860.79	0.00333055
3870.43	0.0047455
3880.07	0.00464021
3889.72	0.00720715
3899.36	0.00437253
3909	0.00529274
3918.64	0.00597685
3928.29	0.00366521
3937.93	0.00409813
3947.57	0.00644855
3957.21	0.00655245
3966.86	0.00594934
3976.5	0.00466344
3986.14	0.00822741
3995.78	0.00601597
