Measurement: Infrared, Infrared Data Processed
Mineral: Stilbite-Ca
Rruff sample: R050106
Ideal chemistry: NaCa_4_(Si_27_Al_9_)O_72_28H_2_O
Locality: Corea, Sonora, Mexico
Source: Fred Devito
Description: White to colorless sheaflike aggregates of flattened single crystals
Measured chemistry: Na_1.42_Ca_4.28_(Si_26.02_Al_9.98_)O_72_Â·27.61H_2_O; trace amounts of K; H_2_O estimated by difference
x	intensity
50.1401	0.0193249
52.0686	0.0185374
53.9971	0.0162589
55.9255	0.0178097
57.854	0.0207781
59.7825	0.0259952
61.7109	0.0240467
63.6394	0.0224425
65.5679	0.021888
67.4963	0.0229599
69.4248	0.0224648
71.3533	0.0243971
73.2817	0.0250976
75.2102	0.0247469
77.1387	0.0243429
79.0671	0.0252427
80.9956	0.0262814
82.9241	0.0271352
84.8525	0.0274318
86.781	0.02768
88.7095	0.0272535
90.6379	0.0276604
92.5664	0.0278234
94.4948	0.0283224
96.4233	0.0280274
98.3518	0.0276228
100.28	0.0277228
102.209	0.0286514
104.137	0.0284293
106.066	0.0285268
107.994	0.0287568
109.923	0.0294376
111.851	0.0299332
113.779	0.029576
115.708	0.029646
117.636	0.0305928
119.565	0.030826
121.493	0.0310046
123.422	0.0312863
125.35	0.0322154
127.279	0.0329184
129.207	0.0334852
131.136	0.0339056
133.064	0.034404
134.993	0.03498
136.921	0.0364349
138.85	0.0366066
140.778	0.0364318
142.707	0.0366751
144.635	0.0370562
146.563	0.036955
148.492	0.0375882
150.42	0.0380719
152.349	0.0382519
154.277	0.0378551
156.206	0.0379059
158.134	0.0379995
160.063	0.0376784
161.991	0.0372981
163.92	0.0382622
165.848	0.0390529
167.777	0.0388417
169.705	0.0386117
171.633	0.0389193
173.562	0.0390156
175.49	0.0395445
177.419	0.0398197
179.347	0.0391318
181.276	0.0392135
183.204	0.0398752
185.133	0.040169
187.061	0.0403629
188.99	0.040846
190.918	0.0414945
192.847	0.0420211
194.775	0.0425464
196.704	0.0426759
198.632	0.0433576
200.56	0.0440248
202.489	0.0450186
204.417	0.0443369
206.346	0.0442212
208.274	0.0451002
210.203	0.0457491
212.131	0.0460438
214.06	0.0466598
215.988	0.0469876
217.917	0.0473672
219.845	0.0479329
221.774	0.0488279
223.702	0.0495274
225.631	0.0500832
227.559	0.0508178
229.488	0.0512641
231.416	0.0515258
233.344	0.0518352
235.273	0.0521476
237.201	0.0525533
239.13	0.0528981
241.058	0.053548
242.987	0.0542842
244.915	0.0549916
246.844	0.055318
248.772	0.0558695
250.701	0.0564141
252.629	0.0573706
254.558	0.0582307
256.486	0.0584835
258.414	0.0584909
260.343	0.0590832
262.271	0.0598471
264.2	0.060719
266.128	0.0616154
268.057	0.0623054
269.985	0.0623863
271.914	0.062961
273.842	0.0635639
275.771	0.0642669
277.699	0.0655571
279.628	0.0665729
281.556	0.0670538
283.485	0.0675268
285.413	0.0677257
287.341	0.0682179
289.27	0.0688697
291.198	0.069485
293.127	0.0702267
295.055	0.0710234
296.984	0.0712862
298.912	0.0714956
300.841	0.0720686
302.769	0.0724511
304.698	0.0725731
306.626	0.0728983
308.555	0.0732776
310.483	0.0734883
312.411	0.0736177
314.34	0.0739124
316.269	0.0740627
318.197	0.0741575
320.125	0.074637
322.054	0.0752662
323.982	0.0757188
325.911	0.075989
327.839	0.0760726
329.768	0.0758884
331.696	0.0757055
333.625	0.0759984
335.553	0.0761551
337.482	0.0758799
339.41	0.0756412
341.339	0.0756161
343.267	0.0753007
345.195	0.0751325
347.124	0.0753055
349.052	0.0757061
350.981	0.0760201
352.909	0.0763292
354.838	0.0764881
356.766	0.0766647
358.695	0.0768837
360.623	0.0770044
362.552	0.0773323
364.48	0.0779724
366.409	0.078494
368.337	0.0792313
370.265	0.0804449
372.194	0.0812796
374.122	0.0819156
376.051	0.0825448
377.979	0.0829111
379.908	0.08332
381.836	0.0840426
383.765	0.0850231
385.693	0.0856239
387.622	0.0859959
389.55	0.0863806
391.479	0.086812
393.407	0.0870749
395.336	0.0875132
397.264	0.0878545
399.192	0.0882536
401.121	0.0885114
403.049	0.0886154
404.978	0.0887926
406.906	0.0892907
408.835	0.0895653
410.763	0.0898447
412.692	0.0905988
414.62	0.0915698
416.549	0.0926298
418.477	0.093709
420.406	0.0943349
422.334	0.0951513
424.262	0.0961997
426.191	0.0973433
428.12	0.0985452
430.048	0.0994119
431.976	0.0998346
433.905	0.100072
435.833	0.0999885
437.762	0.0996491
439.69	0.0988834
441.619	0.0979563
443.547	0.0969612
445.476	0.0958318
447.404	0.0945057
449.333	0.0933604
451.261	0.0926952
453.19	0.0920054
455.118	0.0906789
457.046	0.0901089
458.975	0.0898752
460.903	0.0890773
462.832	0.0882003
464.76	0.0878148
466.689	0.0869808
468.617	0.0857731
470.546	0.0847238
472.474	0.0838833
474.403	0.0832467
476.331	0.0824179
478.26	0.0815734
480.188	0.0813806
482.116	0.0812627
484.045	0.0813706
485.974	0.0812466
487.902	0.08117
489.83	0.0811731
491.759	0.0813602
493.687	0.0818017
495.616	0.0822142
497.544	0.08258
499.473	0.0827748
501.401	0.0831477
503.33	0.0834091
505.258	0.0834713
507.187	0.0837796
509.115	0.0838646
511.043	0.0841558
512.972	0.0845093
514.9	0.0844832
516.829	0.0850213
518.757	0.0859186
520.686	0.0868824
522.614	0.0879115
524.543	0.0889671
526.471	0.0898867
528.4	0.0906389
530.328	0.0913052
532.257	0.0920331
534.185	0.0929297
536.114	0.0935629
538.042	0.0941703
539.971	0.0946285
541.899	0.094763
543.827	0.094826
545.756	0.094897
547.684	0.0950065
549.613	0.0947746
551.541	0.0944309
553.47	0.0940663
555.398	0.0936724
557.327	0.0932349
559.255	0.0923427
561.184	0.0911721
563.112	0.090205
565.041	0.0889741
566.969	0.087638
568.898	0.086825
570.826	0.0859763
572.755	0.0848311
574.683	0.0834972
576.611	0.082361
578.54	0.080968
580.468	0.0794294
582.397	0.0783025
584.325	0.0771709
586.254	0.075505
588.182	0.074079
590.111	0.0725941
592.039	0.0707904
593.968	0.0693372
595.896	0.067666
597.824	0.0659173
599.753	0.0638565
601.682	0.0614071
603.61	0.0597694
605.538	0.0583459
607.467	0.0563968
609.395	0.0545336
611.324	0.0534502
613.252	0.0525504
615.181	0.0515586
617.109	0.0500357
619.038	0.0493086
620.966	0.0492965
622.894	0.0489003
624.823	0.0487193
626.751	0.048952
628.68	0.049785
630.608	0.0506527
632.537	0.0509492
634.465	0.0509581
636.394	0.0508051
638.322	0.0508495
640.251	0.0511493
642.179	0.0516244
644.108	0.0519129
646.036	0.0523587
647.965	0.0525789
649.893	0.0526689
651.822	0.0529773
653.75	0.0535764
655.678	0.0540274
657.607	0.0543103
659.535	0.0547119
661.464	0.0551592
663.392	0.0557528
665.321	0.0560546
667.249	0.056203
669.178	0.0562667
671.106	0.0560927
673.035	0.0560392
674.963	0.0566104
676.892	0.0571942
678.82	0.0576458
680.749	0.0579394
682.677	0.0583225
684.606	0.0586127
686.534	0.0584582
688.462	0.0589103
690.391	0.0600311
692.319	0.0601223
694.248	0.0599551
696.176	0.0601307
698.105	0.0603042
700.033	0.0606434
