Measurement: Infrared, Infrared Data Processed
Mineral: Strontianite
Rruff sample: R050564
Ideal chemistry: SrCO_3_
Locality: Winfield Quarry, Lancaster County, Pennsylvania, USA
Source: Dave Bunk Minerals
Description: Colorless prismatic crystals
Measured chemistry: (Sr_0.85_Ca_0.15_)CO_3_
x	intensity
399.193	0.00726112
408.835	0.0118984
418.477	0.00742189
428.12	0.00638722
437.762	0.00596123
447.404	0.00575624
457.047	0.00632287
466.689	0.0053418
476.331	0.00585157
485.974	0.00487209
495.616	0.00505334
505.258	0.00443906
514.901	0.00468745
524.543	0.00520781
534.185	0.0053503
543.828	0.00535883
553.47	0.00524795
563.112	0.00579631
572.755	0.00529329
582.397	0.00586818
592.039	0.00557363
601.682	0.00611077
611.324	0.00709841
620.966	0.00722984
630.609	0.00695667
640.251	0.00753788
649.893	0.00772476
659.536	0.00867908
669.178	0.008872
678.82	0.00881992
688.463	0.0115536
698.105	0.0589241
707.747	0.065697
717.39	0.00829291
727.032	0.0063567
736.674	0.00698081
746.317	0.00706461
755.959	0.00692479
765.601	0.00739608
775.244	0.00773476
784.886	0.00811084
794.528	0.00884727
804.171	0.00968759
813.813	0.0114084
823.455	0.0140491
833.098	0.0219429
842.74	0.0787251
852.382	0.238234
862.025	0.168074
871.667	0.0255751
881.309	0.0160238
890.952	0.0116091
900.594	0.011807
910.236	0.0106105
919.879	0.0101109
929.521	0.0102834
939.163	0.0105954
948.806	0.0102869
958.448	0.010531
968.09	0.0110166
977.733	0.0113175
987.375	0.0114611
997.017	0.0118746
1006.66	0.0125855
1016.3	0.0131186
1025.94	0.0132081
1035.59	0.0144436
1045.23	0.0155875
1054.87	0.0168455
1064.51	0.0194406
1074.16	0.0417944
1083.8	0.0172648
1093.44	0.017046
1103.08	0.017309
1112.72	0.0183313
1122.37	0.018941
1132.01	0.0202265
1141.65	0.0217414
1151.3	0.0230488
1160.94	0.0229635
1170.58	0.0246284
1180.22	0.025792
1189.86	0.0277461
1199.51	0.0296127
1209.15	0.031498
1218.79	0.033838
1228.43	0.0364637
1238.08	0.039865
1247.72	0.0441124
1257.36	0.0483529
1267	0.0530418
1276.64	0.0602822
1286.29	0.065615
1295.93	0.0731565
1305.57	0.0814907
1315.21	0.0925233
1324.86	0.105324
1334.5	0.12002
1344.14	0.138646
1353.78	0.161972
1363.43	0.194748
1373.07	0.23768
1382.71	0.288949
1392.35	0.345197
1401.99	0.408942
1411.64	0.472526
1421.28	0.542878
1430.92	0.601206
1440.57	0.607056
1450.21	0.556486
1459.85	0.475658
1469.49	0.398283
1479.13	0.333268
1488.78	0.27693
1498.42	0.227345
1508.06	0.185014
1517.7	0.145355
1527.35	0.109656
1536.99	0.0795136
1546.63	0.0536275
1556.27	0.0329072
1565.91	0.018742
1575.56	0.0131155
1585.2	0.0107715
1594.84	0.00961098
1604.48	0.00805319
1614.13	0.00626688
1623.77	0.00519484
1633.41	0.0044567
1643.05	0.0039559
1652.7	0.0032397
1662.34	0.00259767
1671.98	0.00185398
1681.62	0.00150965
1691.27	0.000948727
1700.91	0.000235839
1710.55	-0.00151769
1720.19	-0.00176209
1729.84	-0.00278911
1739.48	-0.0070046
1749.12	-0.00565407
1758.76	0.00138061
1768.4	0.0159495
1778.05	0.0170274
1787.69	0.0034478
1797.33	0.0013813
1806.97	0.000903634
1816.62	0.000818913
1826.26	0.000996763
1835.9	0.00119884
1845.54	0.00237584
1855.18	0.00154326
1864.83	0.000700561
1874.47	0.00125724
1884.11	0.00216769
1893.75	0.00126792
1903.4	0.00143028
1913.04	0.00107967
1922.68	0.00184384
1932.32	0.000966961
1941.97	-0.000397624
1951.61	0.00241375
1961.25	0.000555926
1970.89	0.0018834
1980.54	0.00512036
1990.18	0.00164334
1999.82	-0.00137187
2009.46	-2.36361e-05
2019.11	0.000845502
2028.75	0.000239674
2038.39	0.00248687
2048.03	0.00186803
2057.67	0.00321134
2067.32	0.00335976
2076.96	0.00238046
2086.6	0.00066085
2096.24	0.00452329
2105.89	0.00564318
2115.53	0.00292464
2125.17	0.0035186
2134.81	0.001493
2144.45	-0.00368186
2154.1	-0.00340291
2163.74	0.0111141
2173.38	0.000716657
2183.02	0.00425937
2192.67	0.00414625
2202.31	0.00496067
2211.95	0.00308882
2221.59	0.003074
2231.24	0.00479236
2240.88	0.00555535
2250.52	0.00509872
2260.16	0.00560828
2269.8	0.00638971
2279.45	0.00758138
2289.09	0.00695409
2298.73	0.00663238
2308.38	0.00761918
2318.02	0.00802944
2327.66	0.00655242
2337.3	0.00623439
2346.94	0.00543194
2356.59	0.00593605
2366.23	0.00548335
2375.87	0.00600283
2385.51	0.00619743
2395.16	0.00479724
2404.8	0.00587445
2414.44	0.00577316
2424.08	0.00637075
2433.72	0.00582721
2443.37	0.00690593
2453.01	0.00902635
2462.65	0.00983599
2472.29	0.0133407
2481.94	0.0162885
2491.58	0.0159238
2501.22	0.0149001
2510.86	0.0138529
2520.51	0.0114234
2530.15	0.0108605
2539.79	0.00775205
2549.43	0.00668005
2559.07	0.00924529
2568.72	0.00859152
2578.36	0.00732084
2588	0.00952118
2597.64	0.00855948
2607.29	0.00767814
2616.93	0.00755927
2626.57	0.0076686
2636.21	0.0067794
2645.86	0.00649734
2655.5	0.00584067
2665.14	0.0062206
2674.78	0.00540788
2684.43	0.0064256
2694.07	0.00665694
2703.71	0.00583893
2713.35	0.00583305
2722.99	0.00835993
2732.64	0.00571014
2742.28	0.00492251
2751.92	0.0058864
2761.56	0.0063673
2771.21	0.00439444
2780.85	0.0065093
2790.49	0.00367746
2800.13	0.00507581
2809.78	0.00581794
2819.42	0.00414692
2829.06	0.00463025
2838.7	0.00514492
2848.34	0.00134751
2857.99	0.00587249
2867.63	0.00703481
2877.27	0.0091743
2886.91	0.00785731
2896.56	0.00643922
2906.2	0.00436779
2915.84	0.00416753
2925.48	0.008684
2935.13	0.0110638
2944.77	0.00991499
2954.41	0.00791663
2964.05	0.0118934
2973.7	0.00913806
2983.34	0.0106215
2992.98	0.0104061
3002.62	0.0115366
3012.26	0.010201
3021.91	0.0133515
3031.55	0.00819325
3041.19	0.0127236
3050.83	0.0102219
3060.48	0.0130039
3070.12	0.0106149
3079.76	0.012728
3089.4	0.0158707
3099.05	0.0139458
3108.69	0.0120172
3118.33	0.0154206
3127.97	0.0142811
3137.61	0.0159004
3147.26	0.0171224
3156.9	0.0159766
3166.54	0.0131343
3176.18	0.0146789
3185.83	0.0143536
3195.47	0.0150225
3205.11	0.0151886
3214.75	0.0137945
3224.4	0.0173523
3234.04	0.0166508
3243.68	0.0164377
3253.32	0.016999
3262.97	0.0157451
3272.61	0.0177016
3282.25	0.0162472
3291.89	0.0187784
3301.53	0.0189958
3311.18	0.019639
3320.82	0.0180968
3330.46	0.0191035
3340.1	0.0173789
3349.75	0.0199939
3359.39	0.0197744
3369.03	0.0199034
3378.67	0.0191479
3388.32	0.0220401
3397.96	0.0191744
3407.6	0.0201063
3417.24	0.0209982
3426.89	0.0202765
3436.53	0.0208322
3446.17	0.0172041
3455.81	0.0203789
3465.45	0.0191712
3475.1	0.0182805
3484.74	0.0169295
3494.38	0.0215411
3504.02	0.0179216
3513.67	0.0187381
3523.31	0.0205484
3532.95	0.0209825
3542.59	0.0166694
3552.24	0.0215832
3561.88	0.0190183
3571.52	0.0152389
3581.16	0.0193099
3590.8	0.0190677
3600.45	0.0180447
3610.09	0.0192214
3619.73	0.0190011
3629.37	0.0180614
3639.02	0.0181284
3648.66	0.0180181
3658.3	0.0194075
3667.94	0.0209664
3677.59	0.0174589
3687.23	0.0190861
3696.87	0.0198781
3706.51	0.0218366
3716.16	0.0182455
3725.8	0.0208742
3735.44	0.0201944
3745.08	0.0232602
3754.72	0.0211394
3764.37	0.0211314
3774.01	0.0178948
3783.65	0.0224338
3793.29	0.0258689
3802.94	0.0214028
3812.58	0.0168233
3822.22	0.0238674
3831.86	0.022547
3841.51	0.0254657
3851.15	0.0227253
3860.79	0.0236396
3870.43	0.0216008
3880.07	0.0244225
3889.72	0.0231783
3899.36	0.0216394
3909	0.0250566
3918.64	0.0242522
3928.29	0.029697
3937.93	0.0211588
3947.57	0.0251651
3957.21	0.0247592
3966.86	0.0236907
3976.5	0.0243018
3986.14	0.0255484
3995.78	0.0220261
