Measurement: Infrared, Infrared Data Processed
Mineral: Strontianite
Rruff sample: R040037
Ideal chemistry: SrCO_3_
Locality: Alston Moor, Cumbria, England
Source: University of Arizona Mineral Museum
Description: Group of tan colored crystals
Measured chemistry: (Sr_0.91_Ca_0.09_)_Î£=1_CO_3_; CO_2_ estimated by difference
x	intensity
399.193	0
408.835	0.0104767
418.477	0.0070641
428.12	0.00530936
437.762	0.00679201
447.404	0.00565632
457.047	0.0061026
466.689	0.00572976
476.331	0.00478375
485.974	0.00527323
495.616	0.00528828
505.258	0.00543902
514.901	0.00518929
524.543	0.00522701
534.185	0.00533786
543.828	0.00446415
553.47	0.0048881
563.112	0.00523798
572.755	0.00588364
582.397	0.00599714
592.039	0.00572189
601.682	0.00597474
611.324	0.00714722
620.966	0.0070288
630.609	0.00711867
640.251	0.00766146
649.893	0.00718244
659.536	0.00782583
669.178	0.0084113
678.82	0.00906713
688.463	0.012312
698.105	0.0614335
707.747	0.0576016
717.39	0.0071691
727.032	0.00677382
736.674	0.00736149
746.317	0.00813264
755.959	0.00801991
765.601	0.00845903
775.244	0.00923965
784.886	0.00979292
794.528	0.0105293
804.171	0.0117441
813.813	0.0132073
823.455	0.0163133
833.098	0.0253788
842.74	0.0768014
852.382	0.202304
862.025	0.151994
871.667	0.0223278
881.309	0.0137705
890.952	0.0121424
900.594	0.01268
910.236	0.0119315
919.879	0.0121503
929.521	0.0127955
939.163	0.0130307
948.806	0.0130432
958.448	0.0134749
968.09	0.0138182
977.733	0.0140815
987.375	0.014557
997.017	0.0149325
1006.66	0.0157785
1016.3	0.0162352
1025.94	0.0168749
1035.59	0.0178097
1045.23	0.0187069
1054.87	0.0201481
1064.51	0.0229635
1074.16	0.0382163
1083.8	0.0223462
1093.44	0.0234048
1103.08	0.0241213
1112.72	0.0247229
1122.37	0.026521
1132.01	0.0279772
1141.65	0.0292358
1151.3	0.0307252
1160.94	0.03155
1170.58	0.0324819
1180.22	0.0344393
1189.86	0.0369331
1199.51	0.0378629
1209.15	0.0390786
1218.79	0.0414407
1228.43	0.044132
1238.08	0.0477227
1247.72	0.0516334
1257.36	0.055668
1267	0.0603488
1276.64	0.0662123
1286.29	0.0727586
1295.93	0.0803018
1305.57	0.0887455
1315.21	0.0992262
1324.86	0.110594
1334.5	0.123608
1344.14	0.139302
1353.78	0.159489
1363.43	0.185069
1373.07	0.215999
1382.71	0.253415
1392.35	0.293384
1401.99	0.340233
1411.64	0.393156
1421.28	0.459046
1430.92	0.521323
1440.57	0.537127
1450.21	0.506634
1459.85	0.439932
1469.49	0.36732
1479.13	0.304585
1488.78	0.251981
1498.42	0.207461
1508.06	0.168154
1517.7	0.132153
1527.35	0.100181
1536.99	0.0734186
1546.63	0.0494942
1556.27	0.0304323
1565.91	0.0191788
1575.56	0.0150741
1585.2	0.0136661
1594.84	0.0130115
1604.48	0.0119989
1614.13	0.0109236
1623.77	0.00943415
1633.41	0.00863401
1643.05	0.00789964
1652.7	0.00665189
1662.34	0.0065225
1671.98	0.00629698
1681.62	0.0056624
1691.27	0.00514698
1700.91	0.00446977
1710.55	0.00368799
1720.19	0.00362973
1729.84	0.00358453
1739.48	0.00322855
1749.12	0.00370382
1758.76	0.00497033
1768.4	0.0201061
1778.05	0.0165721
1787.69	0.00423241
1797.33	0.00286577
1806.97	0.00272398
1816.62	0.00275721
1826.26	0.00317287
1835.9	0.00307167
1845.54	0.00302183
1855.18	0.00383654
1864.83	0.00260895
1874.47	0.00311967
1884.11	0.00295554
1893.75	0.00332694
1903.4	0.00281194
1913.04	0.00397676
1922.68	0.00346664
1932.32	0.00237392
1941.97	0.00329503
1951.61	0.00250059
1961.25	0.00296366
1970.89	0.00317348
1980.54	0.00731476
1990.18	0.00578388
1999.82	0.00201892
2009.46	0.00163307
2019.11	0.00438864
2028.75	0.00290083
2038.39	0.00573678
2048.03	0.00727893
2057.67	0.00350632
2067.32	0.00574927
2076.96	0.00467694
2086.6	0.00530125
2096.24	0.00520197
2105.89	0.00348491
2115.53	0.00474139
2125.17	0.00522972
2134.81	0.00375711
2144.45	0.00253133
2154.1	0.000554342
2163.74	0.00923881
2173.38	0.00504096
2183.02	0.00460777
2192.67	0.00661412
2202.31	0.00583985
2211.95	0.00579527
2221.59	0.00605134
2231.24	0.00749547
2240.88	0.00646661
2250.52	0.0066804
2260.16	0.00783775
2269.8	0.00826058
2279.45	0.00861271
2289.09	0.00963247
2298.73	0.00831566
2308.38	0.00759045
2318.02	0.00855438
2327.66	0.00713782
2337.3	0.00793725
2346.94	0.0074002
2356.59	0.00781617
2366.23	0.00739878
2375.87	0.00703358
2385.51	0.00750424
2395.16	0.00677358
2404.8	0.00786155
2414.44	0.00801724
2424.08	0.00823826
2433.72	0.008659
2443.37	0.00789996
2453.01	0.00986613
2462.65	0.0112793
2472.29	0.0138919
2481.94	0.0178198
2491.58	0.0164733
2501.22	0.0148773
2510.86	0.0145664
2520.51	0.0118213
2530.15	0.00977356
2539.79	0.00990643
2549.43	0.0103756
2559.07	0.00762528
2568.72	0.0100842
2578.36	0.00827682
2588	0.0098368
2597.64	0.00884711
2607.29	0.0089997
2616.93	0.00873839
2626.57	0.00864877
2636.21	0.00780905
2645.86	0.00817724
2655.5	0.00763919
2665.14	0.0074411
2674.78	0.00737794
2684.43	0.0065276
2694.07	0.0069346
2703.71	0.00711112
2713.35	0.00647867
2722.99	0.00715863
2732.64	0.0070961
2742.28	0.00567559
2751.92	0.00679731
2761.56	0.00683054
2771.21	0.00619839
2780.85	0.00596776
2790.49	0.00577951
2800.13	0.00615985
2809.78	0.00485208
2819.42	0.00499388
2829.06	0.00507127
2838.7	0.00741619
2848.34	0.00630428
2857.99	0.00695933
2867.63	0.00824697
2877.27	0.00900117
2886.91	0.00819693
2896.56	0.00758435
2906.2	0.00663267
2915.84	0.00842616
2925.48	0.00788247
2935.13	0.00897285
2944.77	0.00924688
2954.41	0.00835212
2964.05	0.00735855
2973.7	0.00585767
2983.34	0.00566159
2992.98	0.00636911
3002.62	0.00681854
3012.26	0.00728666
3021.91	0.00795089
3031.55	0.00861814
3041.19	0.00839646
3050.83	0.008865
3060.48	0.00958902
3070.12	0.0103752
3079.76	0.0100745
3089.4	0.0105697
3099.05	0.0105587
3108.69	0.0128595
3118.33	0.0125065
3127.97	0.0124215
3137.61	0.0134287
3147.26	0.0130163
3156.9	0.0121117
3166.54	0.0127307
3176.18	0.0146045
3185.83	0.0129646
3195.47	0.0133892
3205.11	0.0130136
3214.75	0.0140532
3224.4	0.0127533
3234.04	0.0138568
3243.68	0.0141751
3253.32	0.0146093
3262.97	0.0140567
3272.61	0.015607
3282.25	0.0136486
3291.89	0.0141907
3301.53	0.0145365
3311.18	0.0139358
3320.82	0.0152947
3330.46	0.0142779
3340.1	0.0147647
3349.75	0.0166263
3359.39	0.0159133
3369.03	0.016287
3378.67	0.0162724
3388.32	0.015317
3397.96	0.0147505
3407.6	0.0169943
3417.24	0.015957
3426.89	0.016834
3436.53	0.0157102
3446.17	0.01631
3455.81	0.0178436
3465.45	0.0165088
3475.1	0.0171583
3484.74	0.0174144
3494.38	0.0152461
3504.02	0.016658
3513.67	0.0152879
3523.31	0.0149958
3532.95	0.0164553
3542.59	0.0139898
3552.24	0.0151558
3561.88	0.0151638
3571.52	0.0166619
3581.16	0.0158347
3590.8	0.0175372
3600.45	0.015863
3610.09	0.0150771
3619.73	0.0163416
3629.37	0.0173515
3639.02	0.0154154
3648.66	0.018276
3658.3	0.0168884
3667.94	0.0144916
3677.59	0.0160887
3687.23	0.0141302
3696.87	0.0166949
3706.51	0.0148307
3716.16	0.0180088
3725.8	0.0184519
3735.44	0.015924
3745.08	0.0187697
3754.72	0.0180428
3764.37	0.0162562
3774.01	0.0153077
3783.65	0.0149752
3793.29	0.0193982
3802.94	0.0170399
3812.58	0.0189519
3822.22	0.0191616
3831.86	0.0177201
3841.51	0.0189919
3851.15	0.0188284
3860.79	0.0158
3870.43	0.0155224
3880.07	0.0165348
3889.72	0.0170337
3899.36	0.0178483
3909	0.0147002
3918.64	0.0174576
3928.29	0.015366
3937.93	0.0173197
3947.57	0.0161833
3957.21	0.0182856
3966.86	0.0193328
3976.5	0.0182887
3986.14	0.0181669
3995.78	0.0187816
