Measurement: Infrared, Infrared Data Processed
Mineral: Struvite
Rruff sample: R050511
Ideal chemistry: (N^3-^H_4_)MgPO_4_6H_2_O
Locality: Hamburg, Germany
Source: American Museum of Natural History
Description: Colorless with a brown tint, cleavage fragment
Measured chemistry: (NH_4_)(Mg_0.85_Fe^2+^_0.12_Mn_0.02_Ca_0.01_)_Σ=1_(P_1.00_O_4_)·6H_2_O ; NH_4_ not measured but assumed by charge balance
x	intensity
399.193	0.168056
408.835	0.151396
418.477	0.153122
428.12	0.168314
437.762	0.179911
447.404	0.171938
457.047	0.177905
466.689	0.170523
476.331	0.152163
485.974	0.133333
495.616	0.129345
505.258	0.130873
514.901	0.14092
524.543	0.157765
534.185	0.18244
543.828	0.232333
553.47	0.328996
563.112	0.445006
572.755	0.398601
582.397	0.221975
592.039	0.127934
601.682	0.105101
611.324	0.100729
620.966	0.102212
630.609	0.105976
640.251	0.112704
649.893	0.122731
659.536	0.137527
669.178	0.155898
678.82	0.175326
688.463	0.186207
698.105	0.186067
707.747	0.185731
717.39	0.195361
727.032	0.210038
736.674	0.232934
746.317	0.253785
755.959	0.258958
765.601	0.239202
775.244	0.208236
784.886	0.180493
794.528	0.160194
804.171	0.148136
813.813	0.14252
823.455	0.144956
833.098	0.151956
842.74	0.160638
852.382	0.170545
862.025	0.17873
871.667	0.187908
881.309	0.195032
890.952	0.194788
900.594	0.189629
910.236	0.18234
919.879	0.181127
929.521	0.194402
939.163	0.229937
948.806	0.297876
958.448	0.414116
968.09	0.574285
977.733	0.734859
987.375	0.745576
997.017	0.609284
1006.66	0.443783
1016.3	0.306932
1025.94	0.217736
1035.59	0.159137
1045.23	0.118936
1054.87	0.0935535
1064.51	0.0691225
1074.16	0.0537333
1083.8	0.0465376
1093.44	0.041217
1103.08	0.0368283
1112.72	0.0330027
1122.37	0.0299285
1132.01	0.0269625
1141.65	0.0238906
1151.3	0.0214209
1160.94	0.0194818
1170.58	0.0179745
1180.22	0.0155436
1189.86	0.0135904
1199.51	0.0121419
1209.15	0.0116109
1218.79	0.011399
1228.43	0.0117604
1238.08	0.0117833
1247.72	0.0114806
1257.36	0.0113935
1267	0.0112214
1276.64	0.0117113
1286.29	0.0120944
1295.93	0.0127169
1305.57	0.0129102
1315.21	0.0137194
1324.86	0.0139607
1334.5	0.0149336
1344.14	0.0155584
1353.78	0.0170449
1363.43	0.0187574
1373.07	0.0210236
1382.71	0.024393
1392.35	0.0292519
1401.99	0.035671
1411.64	0.0477897
1421.28	0.0743334
1430.92	0.124854
1440.57	0.112392
1450.21	0.0880169
1459.85	0.0677804
1469.49	0.0697808
1479.13	0.0511401
1488.78	0.0385548
1498.42	0.0356012
1508.06	0.0358995
1517.7	0.0373301
1527.35	0.0390241
1536.99	0.0416369
1546.63	0.044181
1556.27	0.0471823
1565.91	0.0499805
1575.56	0.0523835
1585.2	0.053901
1594.84	0.054712
1604.48	0.0545435
1614.13	0.0530309
1623.77	0.0518649
1633.41	0.0509938
1643.05	0.0502991
1652.7	0.0508076
1662.34	0.0503675
1671.98	0.0503802
1681.62	0.0494651
1691.27	0.046496
1700.91	0.041626
1710.55	0.0368206
1720.19	0.0343138
1729.84	0.0320022
1739.48	0.0294495
1749.12	0.0294138
1758.76	0.0301784
1768.4	0.0304476
1778.05	0.0304444
1787.69	0.0297159
1797.33	0.0288882
1806.97	0.0285766
1816.62	0.0276635
1826.26	0.0263115
1835.9	0.0251795
1845.54	0.0244317
1855.18	0.0226183
1864.83	0.0219379
1874.47	0.0210424
1884.11	0.0200345
1893.75	0.0190034
1903.4	0.0186931
1913.04	0.0167945
1922.68	0.0164786
1932.32	0.0148246
1941.97	0.0134605
1951.61	0.0137208
1961.25	0.0110369
1970.89	0.0114415
1980.54	0.0120563
1990.18	0.013325
1999.82	0.0114034
2009.46	0.00963356
2019.11	0.0111611
2028.75	0.014365
2038.39	0.0135668
2048.03	0.0142158
2057.67	0.014452
2067.32	0.0156344
2076.96	0.0159556
2086.6	0.0151635
2096.24	0.0170906
2105.89	0.016414
2115.53	0.0165372
2125.17	0.0164885
2134.81	0.0163965
2144.45	0.0168226
2154.1	0.0160337
2163.74	0.0191753
2173.38	0.0185346
2183.02	0.0203345
2192.67	0.0209519
2202.31	0.0240444
2211.95	0.0246291
2221.59	0.0267737
2231.24	0.0285918
2240.88	0.0307659
2250.52	0.033938
2260.16	0.0363451
2269.8	0.0402701
2279.45	0.0430732
2289.09	0.0466336
2298.73	0.0500509
2308.38	0.0535696
2318.02	0.0576526
2327.66	0.0597796
2337.3	0.0626138
2346.94	0.063035
2356.59	0.0647222
2366.23	0.0645601
2375.87	0.063707
2385.51	0.0630392
2395.16	0.0625539
2404.8	0.0619104
2414.44	0.0615444
2424.08	0.0610177
2433.72	0.0613009
2443.37	0.0616381
2453.01	0.0619314
2462.65	0.0613643
2472.29	0.0615418
2481.94	0.0620062
2491.58	0.0621593
2501.22	0.062757
2510.86	0.0631699
2520.51	0.0646017
2530.15	0.0648826
2539.79	0.0660491
2549.43	0.0666073
2559.07	0.0676983
2568.72	0.0690886
2578.36	0.0707184
2588	0.0722326
2597.64	0.0728678
2607.29	0.0749806
2616.93	0.0770395
2626.57	0.0776642
2636.21	0.079965
2645.86	0.0815316
2655.5	0.0836126
2665.14	0.0849758
2674.78	0.0871204
2684.43	0.0889086
2694.07	0.0910076
2703.71	0.093727
2713.35	0.096337
2722.99	0.0998233
2732.64	0.102512
2742.28	0.106018
2751.92	0.109123
2761.56	0.112464
2771.21	0.11659
2780.85	0.120502
2790.49	0.124954
2800.13	0.128849
2809.78	0.13238
2819.42	0.136407
2829.06	0.139874
2838.7	0.143718
2848.34	0.143649
2857.99	0.146147
2867.63	0.150342
2877.27	0.15293
2886.91	0.15579
2896.56	0.157162
2906.2	0.157208
2915.84	0.155853
2925.48	0.153864
2935.13	0.152821
2944.77	0.152211
2954.41	0.150082
2964.05	0.147958
2973.7	0.145075
2983.34	0.143362
2992.98	0.140169
3002.62	0.136943
3012.26	0.133874
3021.91	0.130583
3031.55	0.127476
3041.19	0.124184
3050.83	0.121669
3060.48	0.11876
3070.12	0.115575
3079.76	0.112717
3089.4	0.110134
3099.05	0.107184
3108.69	0.104023
3118.33	0.10088
3127.97	0.0969901
3137.61	0.0942736
3147.26	0.0918908
3156.9	0.0899546
3166.54	0.0886238
3176.18	0.0870515
3185.83	0.0861352
3195.47	0.0844404
3205.11	0.0825971
3214.75	0.080628
3224.4	0.0796583
3234.04	0.0759142
3243.68	0.0727351
3253.32	0.0689702
3262.97	0.0628646
3272.61	0.056619
3282.25	0.0505084
3291.89	0.0444508
3301.53	0.0396985
3311.18	0.0352575
3320.82	0.0319246
3330.46	0.0288699
3340.1	0.0268075
3349.75	0.0240141
3359.39	0.0228207
3369.03	0.0203545
3378.67	0.0191498
3388.32	0.018196
3397.96	0.0171063
3407.6	0.0165183
3417.24	0.0159883
3426.89	0.0151994
3436.53	0.014988
3446.17	0.014054
3455.81	0.0145469
3465.45	0.0137072
3475.1	0.0140676
3484.74	0.0141855
3494.38	0.0121209
3504.02	0.0103955
3513.67	0.00992489
3523.31	0.00868133
3532.95	0.00836687
3542.59	0.00725556
3552.24	0.00585266
3561.88	0.00557129
3571.52	0.00663805
3581.16	0.00545102
3590.8	0.00492104
3600.45	0.00334761
3610.09	0.00453238
3619.73	0.00290021
3629.37	0.00207779
3639.02	0.000334352
3648.66	3.51235e-05
3658.3	-0.00107625
3667.94	-0.00033479
3677.59	-0.000767865
3687.23	-0.000214424
3696.87	-0.00048928
3706.51	-0.00297039
3716.16	-0.000873495
3725.8	-0.000437911
3735.44	-0.00137279
3745.08	-0.000615128
3754.72	-0.000562649
3764.37	-0.00021035
3774.01	-0.000256249
3783.65	-0.00153655
3793.29	-0.00101675
3802.94	-0.000557553
3812.58	-0.000216907
3822.22	-0.000434601
3831.86	-5.1421e-05
3841.51	0.000236608
3851.15	-0.000778482
3860.79	-0.000706902
3870.43	-0.00156488
3880.07	-0.000880472
3889.72	0.000385984
3899.36	-0.000732473
3909	-0.00187739
3918.64	-0.000833978
3928.29	0.000334352
3937.93	0.00064988
3947.57	-0.000867146
3957.21	-0.000249991
3966.86	-0.000729363
3976.5	-0.000172892
3986.14	0.000153139
3995.78	-0.000358826
