Measurement: Infrared, Infrared Data Processed
Mineral: Sulphohalite
Rruff sample: R050479
Ideal chemistry: Na_6_(S^6+^O_4_)_2_ClF
Locality: Searles Lake, Trona, San Bernardino County, California, USA
Source: California Institute of Technology
Description: A pair of colorless octahedra
Measured chemistry: Na_6.00_(S_1.00_O_4_)_2_F_1.00_Cl_1.00_
x	intensity
50.1401	0.0134974
52.0686	0.0153031
53.9971	0.0151432
55.9255	0.0120893
57.854	0.00937252
59.7825	0.0123901
61.7109	0.0102906
63.6394	0.0103322
65.5679	0.00983158
67.4963	0.00952303
69.4248	0.0113567
71.3533	0.0107414
73.2817	0.0115093
75.2102	0.011373
77.1387	0.011899
79.0671	0.0131715
80.9956	0.013094
82.9241	0.0127773
84.8525	0.0130886
86.781	0.0138683
88.7095	0.0134109
90.6379	0.0134636
92.5664	0.014285
94.4948	0.0147348
96.4233	0.014639
98.3518	0.0150004
100.28	0.0163208
102.209	0.0177039
104.137	0.0178715
106.066	0.017545
107.994	0.0172578
109.923	0.0174937
111.851	0.0183666
113.779	0.0192385
115.708	0.019891
117.636	0.0204857
119.565	0.0210354
121.493	0.0219599
123.422	0.0219534
125.35	0.0229762
127.279	0.0253644
129.207	0.0266543
131.136	0.0274538
133.064	0.0283713
134.993	0.0285265
136.921	0.0294676
138.85	0.0306978
140.778	0.0313928
142.707	0.0312579
144.635	0.0318415
146.563	0.0327318
148.492	0.0332897
150.42	0.0336967
152.349	0.0348702
154.277	0.0363089
156.206	0.0374985
158.134	0.0385773
160.063	0.0397015
161.991	0.040304
163.92	0.0407388
165.848	0.041084
167.777	0.0416875
169.705	0.0426231
171.633	0.0432095
173.562	0.0428624
175.49	0.0430565
177.419	0.0434466
179.347	0.0434861
181.276	0.0435299
183.204	0.0439983
185.133	0.0441236
187.061	0.0436211
188.99	0.0424184
190.918	0.041469
192.847	0.0405872
194.775	0.0394065
196.704	0.0378127
198.632	0.0360483
200.56	0.0343318
202.489	0.0329754
204.417	0.032705
206.346	0.0342214
208.274	0.0369702
210.203	0.0392315
212.131	0.0401517
214.06	0.0397509
215.988	0.0386818
217.917	0.0373991
219.845	0.0365812
221.774	0.0360139
223.702	0.0352693
225.631	0.0343726
227.559	0.0336953
229.488	0.0332139
231.416	0.0327793
233.344	0.0319986
235.273	0.0310845
237.201	0.0303879
239.13	0.0293162
241.058	0.0283137
242.987	0.027582
244.915	0.0269687
246.844	0.0264145
248.772	0.0258224
250.701	0.0252672
252.629	0.0250595
254.558	0.0246928
256.486	0.0241892
258.414	0.024027
260.343	0.0240048
262.271	0.0242616
264.2	0.0243085
266.128	0.0243961
268.057	0.0246412
269.985	0.024681
271.914	0.0245634
273.842	0.0246768
275.771	0.0249339
277.699	0.0254674
279.628	0.0260559
281.556	0.0262792
283.485	0.0266956
285.413	0.0276417
287.341	0.0289732
289.27	0.0305059
291.198	0.0322541
293.127	0.0342134
295.055	0.036725
296.984	0.0393475
298.912	0.0422199
300.841	0.0449236
302.769	0.0477872
304.698	0.0500071
306.626	0.0509954
308.555	0.0509296
310.483	0.0501801
312.411	0.0491403
314.34	0.0477084
316.269	0.0463443
318.197	0.0452241
320.125	0.043608
322.054	0.0419083
323.982	0.040247
325.911	0.0383821
327.839	0.0364762
329.768	0.0345222
331.696	0.0326247
333.625	0.0308509
335.553	0.02917
337.482	0.0272845
339.41	0.0255282
341.339	0.0242353
343.267	0.0232448
345.195	0.0223482
347.124	0.021475
349.052	0.0207984
350.981	0.0202469
352.909	0.0200343
354.838	0.0198824
356.766	0.0196029
358.695	0.0193107
360.623	0.0193056
362.552	0.0191576
364.48	0.0190947
366.409	0.0189631
368.337	0.0187787
370.265	0.0189146
372.194	0.0192323
374.122	0.0194141
376.051	0.019182
377.979	0.0188615
379.908	0.0186673
381.836	0.0185072
383.765	0.0184439
385.693	0.0183233
387.622	0.0181941
389.55	0.0181154
391.479	0.0179363
393.407	0.0181153
395.336	0.0180948
397.264	0.0179968
399.192	0.0180436
401.121	0.0180656
403.049	0.018145
404.978	0.0181835
406.906	0.0183602
408.835	0.018448
410.763	0.0184343
412.692	0.0185052
414.62	0.0186887
416.549	0.018925
418.477	0.0189453
420.406	0.0192029
422.334	0.0195523
424.262	0.0196418
426.191	0.0196362
428.12	0.0197637
430.048	0.0200013
431.976	0.0202479
433.905	0.0205335
435.833	0.0206616
437.762	0.0203015
439.69	0.020091
441.619	0.0199248
443.547	0.0199799
445.476	0.0205056
447.404	0.0208458
449.333	0.0202929
451.261	0.020022
453.19	0.0203032
455.118	0.0205814
457.046	0.0206407
458.975	0.0205802
460.903	0.0206506
462.832	0.0208732
464.76	0.0210269
466.689	0.0209904
468.617	0.0211885
470.546	0.0213709
472.474	0.0214609
474.403	0.0213378
476.331	0.0211653
478.26	0.0209118
480.188	0.0210423
482.116	0.0212267
484.045	0.021388
485.974	0.0212099
487.902	0.0211666
489.83	0.0215411
491.759	0.0218374
493.687	0.0219615
495.616	0.0224113
497.544	0.0227277
499.473	0.0227223
501.401	0.022689
503.33	0.0229877
505.258	0.0232505
507.187	0.0232943
509.115	0.0230949
511.043	0.0224683
512.972	0.0223234
514.9	0.0228135
516.829	0.023276
518.757	0.0230683
520.686	0.0231107
522.614	0.0234004
524.543	0.0231975
526.471	0.0232695
528.4	0.0235139
530.328	0.023466
532.257	0.0234343
534.185	0.0237323
536.114	0.0237644
538.042	0.0237103
539.971	0.0239028
541.899	0.024199
543.827	0.0243476
545.756	0.0245486
547.684	0.0247641
549.613	0.0249433
551.541	0.0246276
553.47	0.0244419
555.398	0.0251113
557.327	0.0254199
559.255	0.0254566
561.184	0.025756
563.112	0.0261019
565.041	0.0261938
566.969	0.0263876
568.898	0.0266024
570.826	0.0271215
572.755	0.0279624
574.683	0.0286216
576.611	0.0284507
578.54	0.0288057
580.468	0.0294984
582.397	0.0301107
584.325	0.0302606
586.254	0.0312054
588.182	0.03237
590.111	0.0328028
592.039	0.0334798
593.968	0.0342297
595.896	0.0355182
597.824	0.0371852
599.753	0.0387449
601.682	0.040458
603.61	0.0432609
605.538	0.0468575
607.467	0.0512854
609.395	0.0569
611.324	0.0631067
613.252	0.0710209
615.181	0.0800315
617.109	0.0875978
619.038	0.0924368
620.966	0.0955227
622.894	0.0979801
624.823	0.0988552
626.751	0.0944408
628.68	0.0849875
630.608	0.0736758
632.537	0.0622275
634.465	0.0514965
636.394	0.0428239
638.322	0.037207
640.251	0.03459
642.179	0.033253
644.108	0.0326008
646.036	0.0324046
647.965	0.0319807
649.893	0.0316804
651.822	0.0318376
653.75	0.0319984
655.678	0.0319289
657.607	0.0317322
659.535	0.031537
661.464	0.0317246
663.392	0.0317875
665.321	0.0319445
667.249	0.0325536
669.178	0.032869
671.106	0.032613
673.035	0.0324977
674.963	0.032973
676.892	0.0334465
678.82	0.0337293
680.749	0.0339535
682.677	0.0338905
684.606	0.0333517
686.534	0.0337741
688.462	0.0344691
690.391	0.034745
692.319	0.0348225
694.248	0.0349886
696.176	0.0353208
698.105	0.0358067
700.033	0.0365643
