Measurement: Infrared, Infrared Data Processed
Mineral: Talc
Rruff sample: R050087
Ideal chemistry: Mg_3_Si_4_O_10_(OH)_2_
Locality: St. Lawrence County, New York, USA
Source: University of Arizona Mineral Museum
Description: An aggregate of colorless foliated coarse single crystals
Measured chemistry: (Mg_.998_Fe_.002_)_3_(Si_.997_Al_.003_)_4_O_10_(OH_.966_F_.034_)_2_
x	intensity
399.193	0.395351
408.835	0.453287
418.477	0.453599
428.12	0.403185
437.762	0.374682
447.404	0.341535
457.047	0.309415
466.689	0.240536
476.331	0.189029
485.974	0.171405
495.616	0.158789
505.258	0.162773
514.901	0.169743
524.543	0.165774
534.185	0.144711
543.828	0.130164
553.47	0.150597
563.112	0.179006
572.755	0.207112
582.397	0.238265
592.039	0.270253
601.682	0.291459
611.324	0.298118
620.966	0.28545
630.609	0.284887
640.251	0.316789
649.893	0.323657
659.536	0.359037
669.178	0.360104
678.82	0.255625
688.463	0.199159
698.105	0.177308
707.747	0.177334
717.39	0.171206
727.032	0.163728
736.674	0.157001
746.317	0.151218
755.959	0.147177
765.601	0.143678
775.244	0.140964
784.886	0.13804
794.528	0.133348
804.171	0.129341
813.813	0.124212
823.455	0.118742
833.098	0.112795
842.74	0.106238
852.382	0.0995459
862.025	0.0929674
871.667	0.0883106
881.309	0.0864479
890.952	0.0898826
900.594	0.0985453
910.236	0.11305
919.879	0.136546
929.521	0.175046
939.163	0.236756
948.806	0.320377
958.448	0.403214
968.09	0.489712
977.733	0.574149
987.375	0.649181
997.017	0.692729
1006.66	0.686197
1016.3	0.568013
1025.94	0.379664
1035.59	0.247314
1045.23	0.16525
1054.87	0.131024
1064.51	0.123826
1074.16	0.111312
1083.8	0.0965193
1093.44	0.0831253
1103.08	0.0696057
1112.72	0.0564432
1122.37	0.0454184
1132.01	0.0365727
1141.65	0.029342
1151.3	0.0232783
1160.94	0.0197714
1170.58	0.0168268
1180.22	0.0146448
1189.86	0.0134925
1199.51	0.0121706
1209.15	0.0110369
1218.79	0.00970793
1228.43	0.00887791
1238.08	0.00745541
1247.72	0.00686235
1257.36	0.00625544
1267	0.00597878
1276.64	0.00597762
1286.29	0.00612918
1295.93	0.00645037
1305.57	0.00645308
1315.21	0.00605877
1324.86	0.00576396
1334.5	0.00548038
1344.14	0.00536564
1353.78	0.00557041
1363.43	0.00554705
1373.07	0.00702599
1382.71	0.00607717
1392.35	0.00527082
1401.99	0.00541841
1411.64	0.0059727
1421.28	0.00571947
1430.92	0.00531469
1440.57	0.00563462
1450.21	0.00576862
1459.85	0.00576087
1469.49	0.00440578
1479.13	0.00348862
1488.78	0.00317794
1498.42	0.00335694
1508.06	0.00368708
1517.7	0.00407324
1527.35	0.0042664
1536.99	0.00479935
1546.63	0.00546431
1556.27	0.00552134
1565.91	0.00542124
1575.56	0.00537895
1585.2	0.00543031
1594.84	0.00563985
1604.48	0.00563544
1614.13	0.00588951
1623.77	0.00647179
1633.41	0.0072385
1643.05	0.0086147
1652.7	0.00827717
1662.34	0.00850832
1671.98	0.00785879
1681.62	0.00717823
1691.27	0.0056542
1700.91	0.00502881
1710.55	0.0048434
1720.19	0.0041813
1729.84	0.00345342
1739.48	0.00125365
1749.12	0.00129447
1758.76	0.00336028
1768.4	0.0039885
1778.05	0.004164
1787.69	0.00412747
1797.33	0.00469891
1806.97	0.00497071
1816.62	0.00499394
1826.26	0.00450141
1835.9	0.00430531
1845.54	0.00404873
1855.18	0.00310114
1864.83	0.00316804
1874.47	0.00312225
1884.11	0.00200283
1893.75	0.00150315
1903.4	0.00154752
1913.04	0.00134399
1922.68	0.00167083
1932.32	0.00047284
1941.97	-0.00178183
1951.61	-0.00289853
1961.25	-0.00526222
1970.89	-0.00659066
1980.54	-0.00508614
1990.18	-0.00541681
1999.82	-0.00512574
2009.46	-0.00897295
2019.11	-0.00783515
2028.75	-0.00751283
2038.39	-0.00853295
2048.03	-0.00432906
2057.67	-0.00524324
2067.32	-0.0029328
2076.96	-0.000613337
2086.6	-0.000347243
2096.24	0.00110217
2105.89	0.0012399
2115.53	0.00192308
2125.17	-0.00142185
2134.81	-0.00247675
2144.45	-0.00233153
2154.1	-0.00533053
2163.74	-0.00120846
2173.38	-0.000923877
2183.02	0.00166145
2192.67	0.00102034
2202.31	0.00297287
2211.95	0.00189824
2221.59	0.00114581
2231.24	0.00375393
2240.88	0.00265791
2250.52	0.00340974
2260.16	0.0048402
2269.8	0.00366956
2279.45	0.00413145
2289.09	0.00391716
2298.73	0.0043493
2308.38	0.00432152
2318.02	0.00534504
2327.66	0.00410861
2337.3	0.00359981
2346.94	0.00327531
2356.59	0.00431569
2366.23	0.00381667
2375.87	0.00395348
2385.51	0.00438018
2395.16	0.00453186
2404.8	0.00372497
2414.44	0.00471092
2424.08	0.00519212
2433.72	0.00526735
2443.37	0.00559186
2453.01	0.00537714
2462.65	0.00434653
2472.29	0.00522189
2481.94	0.00487552
2491.58	0.00574923
2501.22	0.00530743
2510.86	0.00590096
2520.51	0.00577479
2530.15	0.00626071
2539.79	0.00601668
2549.43	0.00526182
2559.07	0.00628775
2568.72	0.0057884
2578.36	0.00661794
2588	0.00670196
2597.64	0.00663939
2607.29	0.00641303
2616.93	0.00668621
2626.57	0.00806095
2636.21	0.00625237
2645.86	0.00713979
2655.5	0.00700557
2665.14	0.00678905
2674.78	0.00590357
2684.43	0.00695024
2694.07	0.00681714
2703.71	0.00704648
2713.35	0.00752564
2722.99	0.00665116
2732.64	0.00727812
2742.28	0.00766363
2751.92	0.00732819
2761.56	0.0078043
2771.21	0.00809591
2780.85	0.00832292
2790.49	0.00898903
2800.13	0.00889533
2809.78	0.00981543
2819.42	0.00932798
2829.06	0.0105272
2838.7	0.0126033
2848.34	0.0080838
2857.99	0.00849932
2867.63	0.012766
2877.27	0.0128329
2886.91	0.0119912
2896.56	0.0109144
2906.2	0.0136431
2915.84	0.0140489
2925.48	0.0117288
2935.13	0.010753
2944.77	0.0139019
2954.41	0.0175711
2964.05	0.0160702
2973.7	0.0126997
2983.34	0.0123261
2992.98	0.0117981
3002.62	0.012042
3012.26	0.0117423
3021.91	0.0139345
3031.55	0.0132711
3041.19	0.0142891
3050.83	0.0151827
3060.48	0.0138577
3070.12	0.0140994
3079.76	0.0158385
3089.4	0.0160924
3099.05	0.0168543
3108.69	0.0177239
3118.33	0.0178344
3127.97	0.0189446
3137.61	0.019023
3147.26	0.0184361
3156.9	0.0193644
3166.54	0.0200836
3176.18	0.0199691
3185.83	0.0211769
3195.47	0.0207384
3205.11	0.021712
3214.75	0.022396
3224.4	0.0221585
3234.04	0.0237396
3243.68	0.023098
3253.32	0.025011
3262.97	0.0241974
3272.61	0.0238582
3282.25	0.0255828
3291.89	0.0267237
3301.53	0.0249289
3311.18	0.0262215
3320.82	0.0276502
3330.46	0.0262495
3340.1	0.0276411
3349.75	0.0284803
3359.39	0.0285643
3369.03	0.0268644
3378.67	0.0276603
3388.32	0.0284216
3397.96	0.0290969
3407.6	0.0286271
3417.24	0.0283055
3426.89	0.0294751
3436.53	0.0289782
3446.17	0.0284202
3455.81	0.0286855
3465.45	0.0286304
3475.1	0.0292082
3484.74	0.0274648
3494.38	0.0301224
3504.02	0.0306511
3513.67	0.0291613
3523.31	0.0292212
3532.95	0.0275367
3542.59	0.0264155
3552.24	0.0275236
3561.88	0.0250547
3571.52	0.025034
3581.16	0.0248829
3590.8	0.0244088
3600.45	0.0226065
3610.09	0.0214981
3619.73	0.0224904
3629.37	0.0191025
3639.02	0.0209089
3648.66	0.0187114
3658.3	0.0223973
3667.94	0.0311452
3677.59	0.1092
3687.23	0.0140021
3696.87	0.0120751
3706.51	0.013443
3716.16	0.0109432
3725.8	0.0104065
3735.44	0.0136551
3745.08	0.0102659
3754.72	0.011186
3764.37	0.0107467
3774.01	0.0130061
3783.65	0.0109209
3793.29	0.00973041
3802.94	0.0111036
3812.58	0.0107543
3822.22	0.0110259
3831.86	0.0115932
3841.51	0.0108069
3851.15	0.0117556
3860.79	0.0127071
3870.43	0.0104648
3880.07	0.0122322
3889.72	0.0108768
3899.36	0.0133593
3909	0.0131878
3918.64	0.0101626
3928.29	0.0137229
3937.93	0.0143148
3947.57	0.0126892
3957.21	0.0121965
3966.86	0.0127608
3976.5	0.0123436
3986.14	0.0113174
3995.78	0.0124746
