Measurement: Infrared, Infrared Data Processed
Mineral: Talc
Rruff sample: R050058
Ideal chemistry: Mg_3_Si_4_O_10_(OH)_2_
Locality: Murphy, North Carolina, USA
Source: Rock Currier
Description: Fine-grained massive fragment
Measured chemistry: (Mg_.994_Fe_.006_)_3_(Si_.996_Al_.004_)_4_O_10_(OH)_2_
x	intensity
399.193	0.397026
408.835	0.502036
418.477	0.480078
428.12	0.378006
437.762	0.344029
447.404	0.333025
457.047	0.312512
466.689	0.234799
476.331	0.182111
485.974	0.153152
495.616	0.138543
505.258	0.155659
514.901	0.137441
524.543	0.107188
534.185	0.0849383
543.828	0.0796935
553.47	0.0794911
563.112	0.0775685
572.755	0.0757783
582.397	0.0839414
592.039	0.0970528
601.682	0.113703
611.324	0.131222
620.966	0.139092
630.609	0.142392
640.251	0.175842
649.893	0.22182
659.536	0.340885
669.178	0.413439
678.82	0.2477
688.463	0.151279
698.105	0.10864
707.747	0.106162
717.39	0.104463
727.032	0.102295
736.674	0.101401
746.317	0.100845
755.959	0.100869
765.601	0.10273
775.244	0.105584
784.886	0.108074
794.528	0.105896
804.171	0.106333
813.813	0.107964
823.455	0.109378
833.098	0.111834
842.74	0.114227
852.382	0.119996
862.025	0.12936
871.667	0.14089
881.309	0.161379
890.952	0.191999
900.594	0.233904
910.236	0.288426
919.879	0.357668
929.521	0.442127
939.163	0.537283
948.806	0.622093
958.448	0.683541
968.09	0.738185
977.733	0.776612
987.375	0.793064
997.017	0.773798
1006.66	0.711252
1016.3	0.544436
1025.94	0.338032
1035.59	0.226334
1045.23	0.159163
1054.87	0.140041
1064.51	0.13867
1074.16	0.12849
1083.8	0.115886
1093.44	0.10439
1103.08	0.0902264
1112.72	0.0762148
1122.37	0.0634353
1132.01	0.0481897
1141.65	0.0338376
1151.3	0.023199
1160.94	0.0178439
1170.58	0.0146835
1180.22	0.013401
1189.86	0.0119062
1199.51	0.0117777
1209.15	0.0108356
1218.79	0.0103766
1228.43	0.00927311
1238.08	0.00911363
1247.72	0.00879269
1257.36	0.008127
1267	0.00703675
1276.64	0.00744674
1286.29	0.0073477
1295.93	0.00811713
1305.57	0.0079167
1315.21	0.00818839
1324.86	0.00754775
1334.5	0.00690917
1344.14	0.00694039
1353.78	0.00686831
1363.43	0.00661898
1373.07	0.00754555
1382.71	0.00773123
1392.35	0.00773255
1401.99	0.00763373
1411.64	0.00758593
1421.28	0.00705665
1430.92	0.00727477
1440.57	0.00764825
1450.21	0.00771751
1459.85	0.00745046
1469.49	0.00759449
1479.13	0.00644607
1488.78	0.00515673
1498.42	0.00495556
1508.06	0.00324979
1517.7	0.00482932
1527.35	0.00601472
1536.99	0.00609087
1546.63	0.00664781
1556.27	0.00552443
1565.91	0.00800383
1575.56	0.00566513
1585.2	0.00884645
1594.84	0.009707
1604.48	0.0102356
1614.13	0.0108428
1623.77	0.0113312
1633.41	0.0116899
1643.05	0.0142017
1652.7	0.00931251
1662.34	0.0144443
1671.98	0.0144928
1681.62	0.011452
1691.27	0.0105042
1700.91	0.00668276
1710.55	0.00996896
1720.19	0.00850009
1729.84	0.00698359
1739.48	0.00530504
1749.12	0.0053925
1758.76	0.00759285
1768.4	0.00704508
1778.05	0.0075118
1787.69	0.00779233
1797.33	0.0085789
1806.97	0.00892764
1816.62	0.00881238
1826.26	0.00944835
1835.9	0.00790872
1845.54	0.00599881
1855.18	0.00781369
1864.83	0.00698843
1874.47	0.00652135
1884.11	0.00624864
1893.75	0.00550936
1903.4	0.00524672
1913.04	0.00632324
1922.68	0.00331686
1932.32	0.00381064
1941.97	0.000302721
1951.61	-0.000240939
1961.25	-0.00236817
1970.89	-0.00736437
1980.54	-0.00160931
1990.18	-0.00316593
1999.82	-0.00337707
2009.46	-0.00217907
2019.11	-0.00464976
2028.75	-0.00469725
2038.39	-0.00224954
2048.03	0.00165147
2057.67	0.00285058
2067.32	0.00215083
2076.96	0.00458935
2086.6	0.00519402
2096.24	0.00450869
2105.89	0.00569209
2115.53	0.00463766
2125.17	0.00438879
2134.81	0.00322061
2144.45	0.00410852
2154.1	-0.0018781
2163.74	0.00588523
2173.38	0.0058581
2183.02	0.000421699
2192.67	0.00774483
2202.31	0.00764969
2211.95	0.00513475
2221.59	0.00861233
2231.24	0.00885725
2240.88	0.0084008
2250.52	0.00796836
2260.16	0.0108851
2269.8	0.0100123
2279.45	0.0114915
2289.09	0.0118424
2298.73	0.0112676
2308.38	0.0126487
2318.02	0.0133639
2327.66	0.0126335
2337.3	0.0130353
2346.94	0.012459
2356.59	0.0137457
2366.23	0.0135492
2375.87	0.0121978
2385.51	0.0113399
2395.16	0.0106466
2404.8	0.0116688
2414.44	0.0115369
2424.08	0.0114624
2433.72	0.0120295
2443.37	0.0122757
2453.01	0.0124187
2462.65	0.0127309
2472.29	0.0119839
2481.94	0.0127942
2491.58	0.0112089
2501.22	0.0127395
2510.86	0.0140014
2520.51	0.0120976
2530.15	0.0126101
2539.79	0.0138707
2549.43	0.0137241
2559.07	0.013026
2568.72	0.0139463
2578.36	0.0126782
2588	0.0129635
2597.64	0.0135277
2607.29	0.0158327
2616.93	0.0143163
2626.57	0.0141719
2636.21	0.0146982
2645.86	0.015238
2655.5	0.014168
2665.14	0.0138678
2674.78	0.0138236
2684.43	0.014235
2694.07	0.0142402
2703.71	0.0144389
2713.35	0.0132979
2722.99	0.0160016
2732.64	0.0147385
2742.28	0.0142881
2751.92	0.015726
2761.56	0.0158869
2771.21	0.0156095
2780.85	0.0156569
2790.49	0.0151671
2800.13	0.0165022
2809.78	0.0164997
2819.42	0.016521
2829.06	0.0173969
2838.7	0.0175888
2848.34	0.0168162
2857.99	0.0165582
2867.63	0.0183233
2877.27	0.0203762
2886.91	0.0197248
2896.56	0.0203107
2906.2	0.0196166
2915.84	0.0206208
2925.48	0.0211321
2935.13	0.0189732
2944.77	0.0220613
2954.41	0.0206392
2964.05	0.0225523
2973.7	0.0214639
2983.34	0.0215824
2992.98	0.0208277
3002.62	0.0207209
3012.26	0.0214683
3021.91	0.019335
3031.55	0.0209189
3041.19	0.0210061
3050.83	0.0203323
3060.48	0.0209817
3070.12	0.0221129
3079.76	0.0241541
3089.4	0.0234158
3099.05	0.0216161
3108.69	0.0243677
3118.33	0.0236352
3127.97	0.024357
3137.61	0.0246562
3147.26	0.0259812
3156.9	0.0269587
3166.54	0.0243952
3176.18	0.0261634
3185.83	0.0280615
3195.47	0.0278633
3205.11	0.0287175
3214.75	0.0279462
3224.4	0.0273408
3234.04	0.0300619
3243.68	0.0285651
3253.32	0.0301881
3262.97	0.030382
3272.61	0.0333282
3282.25	0.0300982
3291.89	0.0310705
3301.53	0.0343174
3311.18	0.0343983
3320.82	0.0339544
3330.46	0.0351373
3340.1	0.0367116
3349.75	0.0363543
3359.39	0.0368339
3369.03	0.0373802
3378.67	0.0371209
3388.32	0.0385339
3397.96	0.038063
3407.6	0.0358347
3417.24	0.0368696
3426.89	0.0379434
3436.53	0.0348794
3446.17	0.0351492
3455.81	0.0387961
3465.45	0.0358712
3475.1	0.0353762
3484.74	0.0357073
3494.38	0.0365516
3504.02	0.0344139
3513.67	0.0325675
3523.31	0.0298271
3532.95	0.0301856
3542.59	0.0295823
3552.24	0.0320226
3561.88	0.0303967
3571.52	0.0338908
3581.16	0.0303503
3590.8	0.0303294
3600.45	0.0303798
3610.09	0.0266263
3619.73	0.0274612
3629.37	0.0284695
3639.02	0.0312016
3648.66	0.0282323
3658.3	0.0412108
3667.94	0.0511896
3677.59	0.15017
3687.23	0.0173944
3696.87	0.022675
3706.51	0.0228202
3716.16	0.0244474
3725.8	0.0229031
3735.44	0.0176712
3745.08	0.0145574
3754.72	0.0257774
3764.37	0.0200525
3774.01	0.0239461
3783.65	0.0289413
3793.29	0.0271204
3802.94	0.0231025
3812.58	0.0295091
3822.22	0.021839
3831.86	0.0243105
3841.51	0.0271332
3851.15	0.0233313
3860.79	0.0199567
3870.43	0.0253689
3880.07	0.0258795
3889.72	0.0272463
3899.36	0.0250855
3909	0.028587
3918.64	0.0268542
3928.29	0.0238557
3937.93	0.0245372
3947.57	0.0279516
3957.21	0.0285547
3966.86	0.0329091
3976.5	0.0295724
3986.14	0.0277263
3995.78	0.0314831
