Measurement: Infrared, Infrared Data Processed
Mineral: Tapiolite-(Fe)
Rruff sample: R050358
Ideal chemistry: Fe^2+^Ta^5+^_2_O_6_
Locality: Musgrave Ranges, South Australia, Australia
Source: University of Arizona Mineral Museum
Description: Brown fragments
Measured chemistry: (Fe^2+^_0.79_Mn^2+^_0.18_Fe^3+^_0.03_)_Σ=1_(Ta_1.89_Nb_0.08_Ti_0.03_)_Σ=2_O_6_ ; Fe^2+^ and Fe^3+^ estimated by charge balance
x	intensity
399.193	0.295966
408.835	0.301133
418.477	0.311646
428.12	0.301653
437.762	0.292135
447.404	0.298416
457.047	0.295973
466.689	0.290692
476.331	0.284857
485.974	0.28412
495.616	0.28516
505.258	0.291027
514.901	0.301627
524.543	0.311803
534.185	0.31447
543.828	0.307762
553.47	0.302306
563.112	0.303783
572.755	0.301771
582.397	0.297638
592.039	0.290394
601.682	0.278655
611.324	0.265834
620.966	0.252754
630.609	0.239743
640.251	0.226112
649.893	0.214009
659.536	0.202713
669.178	0.191807
678.82	0.181177
688.463	0.170261
698.105	0.160074
707.747	0.151666
717.39	0.142245
727.032	0.130933
736.674	0.120201
746.317	0.11188
755.959	0.103141
765.601	0.0941121
775.244	0.0858768
784.886	0.0784557
794.528	0.0724861
804.171	0.0677222
813.813	0.0632459
823.455	0.0599446
833.098	0.0581596
842.74	0.0558907
852.382	0.0546427
862.025	0.0533407
871.667	0.0487422
881.309	0.0415044
890.952	0.033588
900.594	0.0280401
910.236	0.0255161
919.879	0.0244202
929.521	0.0236863
939.163	0.023144
948.806	0.0238053
958.448	0.0239768
968.09	0.0250082
977.733	0.0264411
987.375	0.0272588
997.017	0.0281425
1006.66	0.0285615
1016.3	0.029259
1025.94	0.0297758
1035.59	0.0303106
1045.23	0.0301428
1054.87	0.029505
1064.51	0.0294303
1074.16	0.02888
1083.8	0.0287096
1093.44	0.0285285
1103.08	0.0291869
1112.72	0.0285858
1122.37	0.028043
1132.01	0.0272958
1141.65	0.0268824
1151.3	0.0266393
1160.94	0.0275156
1170.58	0.0275872
1180.22	0.028671
1189.86	0.0298984
1199.51	0.030792
1209.15	0.0317743
1218.79	0.032986
1228.43	0.033975
1238.08	0.0355739
1247.72	0.0373737
1257.36	0.0391201
1267	0.040814
1276.64	0.0427332
1286.29	0.0433817
1295.93	0.0439464
1305.57	0.0449242
1315.21	0.0460578
1324.86	0.047688
1334.5	0.0488012
1344.14	0.049959
1353.78	0.0503796
1363.43	0.0519201
1373.07	0.053056
1382.71	0.0542908
1392.35	0.0554368
1401.99	0.0566105
1411.64	0.0581662
1421.28	0.0594585
1430.92	0.0601574
1440.57	0.0614099
1450.21	0.0625825
1459.85	0.0642978
1469.49	0.0645166
1479.13	0.066109
1488.78	0.0672071
1498.42	0.0688323
1508.06	0.0710518
1517.7	0.0723086
1527.35	0.0740981
1536.99	0.0756804
1546.63	0.0773196
1556.27	0.0790372
1565.91	0.0800393
1575.56	0.0812012
1585.2	0.0815302
1594.84	0.0838636
1604.48	0.0854902
1614.13	0.0872235
1623.77	0.0886464
1633.41	0.0902736
1643.05	0.091868
1652.7	0.0934394
1662.34	0.0932648
1671.98	0.0937766
1681.62	0.0943932
1691.27	0.0946681
1700.91	0.0960214
1710.55	0.0962707
1720.19	0.0974953
1729.84	0.0988306
1739.48	0.0980278
1749.12	0.0990153
1758.76	0.100766
1768.4	0.103203
1778.05	0.103021
1787.69	0.105199
1797.33	0.107051
1806.97	0.107632
1816.62	0.108724
1826.26	0.110987
1835.9	0.111714
1845.54	0.112862
1855.18	0.113408
1864.83	0.114619
1874.47	0.117367
1884.11	0.11806
1893.75	0.117284
1903.4	0.118889
1913.04	0.120975
1922.68	0.122953
1932.32	0.123518
1941.97	0.124149
1951.61	0.124112
1961.25	0.121364
1970.89	0.126926
1980.54	0.129496
1990.18	0.12977
1999.82	0.13022
2009.46	0.129264
2019.11	0.129216
2028.75	0.137012
2038.39	0.134027
2048.03	0.135015
2057.67	0.138587
2067.32	0.136831
2076.96	0.13796
2086.6	0.138094
2096.24	0.141195
2105.89	0.14268
2115.53	0.142315
2125.17	0.142878
2134.81	0.138885
2144.45	0.139912
2154.1	0.141313
2163.74	0.14853
2173.38	0.14911
2183.02	0.149898
2192.67	0.152708
2202.31	0.153695
2211.95	0.151308
2221.59	0.152454
2231.24	0.154756
2240.88	0.154955
2250.52	0.155335
2260.16	0.156391
2269.8	0.158753
2279.45	0.158972
2289.09	0.159736
2298.73	0.160369
2308.38	0.160897
2318.02	0.162759
2327.66	0.16288
2337.3	0.163334
2346.94	0.163673
2356.59	0.165051
2366.23	0.16547
2375.87	0.166593
2385.51	0.167013
2395.16	0.167439
2404.8	0.168404
2414.44	0.167858
2424.08	0.169385
2433.72	0.171653
2443.37	0.173594
2453.01	0.174532
2462.65	0.174347
2472.29	0.175262
2481.94	0.175997
2491.58	0.177196
2501.22	0.179316
2510.86	0.177722
2520.51	0.178725
2530.15	0.179036
2539.79	0.180125
2549.43	0.180952
2559.07	0.183495
2568.72	0.182702
2578.36	0.18402
2588	0.184579
2597.64	0.184972
2607.29	0.186484
2616.93	0.187294
2626.57	0.187542
2636.21	0.188342
2645.86	0.18914
2655.5	0.190462
2665.14	0.190281
2674.78	0.190452
2684.43	0.192036
2694.07	0.191588
2703.71	0.192548
2713.35	0.19498
2722.99	0.194094
2732.64	0.195142
2742.28	0.197172
2751.92	0.197746
2761.56	0.197847
2771.21	0.198333
2780.85	0.201348
2790.49	0.20109
2800.13	0.202455
2809.78	0.202379
2819.42	0.203514
2829.06	0.205524
2838.7	0.205336
2848.34	0.205884
2857.99	0.20265
2867.63	0.2058
2877.27	0.207132
2886.91	0.210631
2896.56	0.209383
2906.2	0.210733
2915.84	0.209435
2925.48	0.205757
2935.13	0.206615
2944.77	0.209696
2954.41	0.209564
2964.05	0.211001
2973.7	0.213589
2983.34	0.213978
2992.98	0.212641
3002.62	0.214274
3012.26	0.214083
3021.91	0.214565
3031.55	0.21627
3041.19	0.218676
3050.83	0.218964
3060.48	0.219661
3070.12	0.220777
3079.76	0.220697
3089.4	0.22277
3099.05	0.223079
3108.69	0.223949
3118.33	0.224804
3127.97	0.223426
3137.61	0.22657
3147.26	0.224169
3156.9	0.227299
3166.54	0.224646
3176.18	0.229124
3185.83	0.229269
3195.47	0.230694
3205.11	0.231619
3214.75	0.233051
3224.4	0.234874
3234.04	0.234184
3243.68	0.236959
3253.32	0.238388
3262.97	0.235457
3272.61	0.236313
3282.25	0.237552
3291.89	0.238962
3301.53	0.240942
3311.18	0.238737
3320.82	0.24049
3330.46	0.240879
3340.1	0.241886
3349.75	0.240993
3359.39	0.242848
3369.03	0.24199
3378.67	0.242172
3388.32	0.241702
3397.96	0.244823
3407.6	0.242598
3417.24	0.241229
3426.89	0.24398
3436.53	0.245276
3446.17	0.248742
3455.81	0.246169
3465.45	0.249667
3475.1	0.246283
3484.74	0.245721
3494.38	0.249146
3504.02	0.244919
3513.67	0.243692
3523.31	0.247428
3532.95	0.245383
3542.59	0.245675
3552.24	0.249426
3561.88	0.246227
3571.52	0.24563
3581.16	0.244113
3590.8	0.245447
3600.45	0.246054
3610.09	0.246941
3619.73	0.246531
3629.37	0.252621
3639.02	0.248381
3648.66	0.246731
3658.3	0.250781
3667.94	0.250073
3677.59	0.251611
3687.23	0.256386
3696.87	0.251323
3706.51	0.254256
3716.16	0.255704
3725.8	0.25786
3735.44	0.258739
3745.08	0.257367
3754.72	0.257725
3764.37	0.259473
3774.01	0.251221
3783.65	0.258962
3793.29	0.259359
3802.94	0.262553
3812.58	0.260017
3822.22	0.262961
3831.86	0.263046
3841.51	0.264513
3851.15	0.265746
3860.79	0.265485
3870.43	0.265779
3880.07	0.26706
3889.72	0.260394
3899.36	0.267257
3909	0.262774
3918.64	0.266643
3928.29	0.270656
3937.93	0.268097
3947.57	0.266332
3957.21	0.269711
3966.86	0.271859
3976.5	0.269468
3986.14	0.272997
3995.78	0.278042
