Measurement: Infrared, Infrared Data Processed
Mineral: Tarbuttite
Rruff sample: R050621
Ideal chemistry: Zn^2+^_2_(P^5+^O_4_)(OH)
Locality: Broken Hill, Rhodesia
Source: University of Arizona Mineral Museum
Description: Colorless prismatic crystals
Measured chemistry: Zn_2.00_(P_1.00_O_4_)(OH)
x	intensity
399.193	0.126397
408.835	0.050986
418.477	0.0492892
428.12	0.100055
437.762	0.12853
447.404	0.0894633
457.047	0.0730451
466.689	0.0353057
476.331	0.0270358
485.974	0.0282856
495.616	0.033677
505.258	0.0419892
514.901	0.0566348
524.543	0.0750326
534.185	0.069976
543.828	0.0827587
553.47	0.113053
563.112	0.1606
572.755	0.23402
582.397	0.290972
592.039	0.217183
601.682	0.202341
611.324	0.157971
620.966	0.0887887
630.609	0.0462085
640.251	0.0291645
649.893	0.0237995
659.536	0.020327
669.178	0.0182119
678.82	0.0172831
688.463	0.0178787
698.105	0.0182455
707.747	0.0209032
717.39	0.0234899
727.032	0.0275171
736.674	0.0327529
746.317	0.0381361
755.959	0.0440781
765.601	0.0536731
775.244	0.0701062
784.886	0.0980548
794.528	0.147017
804.171	0.17864
813.813	0.110283
823.455	0.0693768
833.098	0.0675235
842.74	0.0782898
852.382	0.0971342
862.025	0.126236
871.667	0.162
881.309	0.209637
890.952	0.265313
900.594	0.311443
910.236	0.313952
919.879	0.258485
929.521	0.188319
939.163	0.187783
948.806	0.257624
958.448	0.317247
968.09	0.269246
977.733	0.29461
987.375	0.337332
997.017	0.349344
1006.66	0.325479
1016.3	0.283001
1025.94	0.247073
1035.59	0.218055
1045.23	0.18769
1054.87	0.157003
1064.51	0.133063
1074.16	0.115984
1083.8	0.120699
1093.44	0.121795
1103.08	0.101407
1112.72	0.0699084
1122.37	0.0416363
1132.01	0.021905
1141.65	0.0112072
1151.3	0.0068625
1160.94	0.00441892
1170.58	0.00323162
1180.22	0.0030783
1189.86	0.0027985
1199.51	0.00237525
1209.15	0.00182082
1218.79	0.00100808
1228.43	0.000478189
1238.08	-0.000168822
1247.72	-9.95836e-05
1257.36	9.99133e-05
1267	1.84299e-05
1276.64	-0.000309891
1286.29	0.000153581
1295.93	0.000691835
1305.57	0.000969741
1315.21	0.00235639
1324.86	0.003058
1334.5	0.0016694
1344.14	0.00118941
1353.78	0.00125723
1363.43	0.00209072
1373.07	0.00152942
1382.71	0.00144352
1392.35	0.00303433
1401.99	0.00358239
1411.64	0.00382745
1421.28	0.00417027
1430.92	0.00428344
1440.57	0.0042321
1450.21	0.00387256
1459.85	0.00313733
1469.49	0.00412054
1479.13	0.00559182
1488.78	0.00559966
1498.42	0.0051829
1508.06	0.00499583
1517.7	0.0045813
1527.35	0.00442707
1536.99	0.00473793
1546.63	0.00522415
1556.27	0.0057919
1565.91	0.00644877
1575.56	0.00749493
1585.2	0.00857096
1594.84	0.00922085
1604.48	0.0090091
1614.13	0.00899005
1623.77	0.0098176
1633.41	0.0110985
1643.05	0.0107324
1652.7	0.01031
1662.34	0.00973412
1671.98	0.00952566
1681.62	0.00860142
1691.27	0.00781078
1700.91	0.00597653
1710.55	0.00329276
1720.19	0.00371373
1729.84	0.00207669
1739.48	-0.00170042
1749.12	-0.000466687
1758.76	0.00453434
1768.4	0.00627749
1778.05	0.00628267
1787.69	0.00648164
1797.33	0.00663725
1806.97	0.00674871
1816.62	0.00641938
1826.26	0.00605269
1835.9	0.00649863
1845.54	0.0072726
1855.18	0.00711163
1864.83	0.00712889
1874.47	0.00804425
1884.11	0.00738471
1893.75	0.0073457
1903.4	0.00673761
1913.04	0.00608906
1922.68	0.00627847
1932.32	0.00714409
1941.97	0.00627474
1951.61	0.00734681
1961.25	0.00525298
1970.89	0.000563756
1980.54	0.00505956
1990.18	0.00382395
1999.82	0.00568924
2009.46	0.00330123
2019.11	0.00142052
2028.75	0.00196948
2038.39	0.00512597
2048.03	0.00888593
2057.67	0.00740436
2067.32	0.0075732
2076.96	0.00804356
2086.6	0.00800717
2096.24	0.00894983
2105.89	0.00936067
2115.53	0.00835391
2125.17	0.00425493
2134.81	0.00490932
2144.45	0.00735561
2154.1	-0.000987865
2163.74	0.010264
2173.38	0.0059839
2183.02	0.0081038
2192.67	0.00748671
2202.31	0.00688381
2211.95	0.0106023
2221.59	0.0101845
2231.24	0.0112412
2240.88	0.0129733
2250.52	0.0124628
2260.16	0.0140744
2269.8	0.0146569
2279.45	0.0163351
2289.09	0.0139526
2298.73	0.0152842
2308.38	0.015875
2318.02	0.0165732
2327.66	0.0150598
2337.3	0.0153741
2346.94	0.0150154
2356.59	0.0155608
2366.23	0.0146981
2375.87	0.0140492
2385.51	0.0132566
2395.16	0.013197
2404.8	0.0142416
2414.44	0.0152613
2424.08	0.0140201
2433.72	0.0137786
2443.37	0.0142401
2453.01	0.0157656
2462.65	0.0155534
2472.29	0.0165214
2481.94	0.0159323
2491.58	0.015989
2501.22	0.0149961
2510.86	0.0149172
2520.51	0.0159109
2530.15	0.0180447
2539.79	0.0161496
2549.43	0.0160559
2559.07	0.0174169
2568.72	0.0179375
2578.36	0.0154031
2588	0.0177149
2597.64	0.0176561
2607.29	0.0193588
2616.93	0.0185838
2626.57	0.0174815
2636.21	0.0194833
2645.86	0.0188757
2655.5	0.0184707
2665.14	0.0183637
2674.78	0.0176815
2684.43	0.0167387
2694.07	0.0182461
2703.71	0.0182482
2713.35	0.0195588
2722.99	0.0195856
2732.64	0.0180988
2742.28	0.0184965
2751.92	0.0193222
2761.56	0.0200474
2771.21	0.0181158
2780.85	0.0211164
2790.49	0.0189408
2800.13	0.0196973
2809.78	0.020982
2819.42	0.0209884
2829.06	0.0190235
2838.7	0.0213143
2848.34	0.0200608
2857.99	0.0202221
2867.63	0.0208129
2877.27	0.0200178
2886.91	0.0199996
2896.56	0.0208218
2906.2	0.0193411
2915.84	0.0227711
2925.48	0.0216489
2935.13	0.0245776
2944.77	0.0253337
2954.41	0.0224437
2964.05	0.0264039
2973.7	0.0251922
2983.34	0.0257162
2992.98	0.0261543
3002.62	0.0283933
3012.26	0.0268759
3021.91	0.0282511
3031.55	0.0238278
3041.19	0.0262891
3050.83	0.0265626
3060.48	0.0269054
3070.12	0.0258879
3079.76	0.0291475
3089.4	0.0305333
3099.05	0.0295009
3108.69	0.0292131
3118.33	0.0267921
3127.97	0.0289443
3137.61	0.0296139
3147.26	0.029971
3156.9	0.0287186
3166.54	0.0296434
3176.18	0.0307417
3185.83	0.0306772
3195.47	0.0310403
3205.11	0.0305972
3214.75	0.0317468
3224.4	0.0324565
3234.04	0.0296704
3243.68	0.0345545
3253.32	0.0336895
3262.97	0.0350325
3272.61	0.033601
3282.25	0.0352242
3291.89	0.0369037
3301.53	0.0389123
3311.18	0.0399224
3320.82	0.0420052
3330.46	0.0440905
3340.1	0.0480501
3349.75	0.04616
3359.39	0.0538045
3369.03	0.06083
3378.67	0.0638583
3388.32	0.070991
3397.96	0.0814762
3407.6	0.103825
3417.24	0.147082
3426.89	0.204114
3436.53	0.205061
3446.17	0.0940667
3455.81	0.0446736
3465.45	0.033002
3475.1	0.0285064
3484.74	0.0304738
3494.38	0.030469
3504.02	0.0310022
3513.67	0.0290878
3523.31	0.0254922
3532.95	0.0301706
3542.59	0.0296142
3552.24	0.026838
3561.88	0.0260674
3571.52	0.0273773
3581.16	0.0234524
3590.8	0.0260118
3600.45	0.024339
3610.09	0.024104
3619.73	0.0281219
3629.37	0.0264117
3639.02	0.0292085
3648.66	0.0250825
3658.3	0.025782
3667.94	0.0294307
3677.59	0.0299561
3687.23	0.0307301
3696.87	0.0247688
3706.51	0.028791
3716.16	0.029443
3725.8	0.0292704
3735.44	0.0294423
3745.08	0.032286
3754.72	0.030351
3764.37	0.0328025
3774.01	0.0285851
3783.65	0.0311542
3793.29	0.0337917
3802.94	0.0310457
3812.58	0.0296198
3822.22	0.0302683
3831.86	0.0312562
3841.51	0.0341926
3851.15	0.0335538
3860.79	0.0322111
3870.43	0.0285328
3880.07	0.0343387
3889.72	0.0323524
3899.36	0.0379193
3909	0.0354691
3918.64	0.0344495
3928.29	0.0353946
3937.93	0.0278972
3947.57	0.035889
3957.21	0.0359324
3966.86	0.0346445
3976.5	0.0374658
3986.14	0.0340518
3995.78	0.0331285
