Measurement: Infrared, Infrared Data Processed
Mineral: Tennantite-(Zn)
Rruff sample: R050438
Ideal chemistry: Cu^1+^_6_(Cu^1+^_4_Zn^2+^_2_)As^3+^_4_S^2-^_13_
Locality: Conception del Oro, Zecatecas, Mexico
Source: University of Arizona Mineral Museum
Description: Grey-black crystals associated with white quartz. The crystals appear to vary in chemistry between tennantite and tetrahedrite.
Measured chemistry: (Cu_9.94_Zn_1.51_Fe_0.55_)_Σ=12_(As_3.58_Sb_0.42_)_Σ=4_S_13.00_; = dark phase. (Cu_10.03_Zn_1.70_Fe_0.27_)_Σ=12_(As_2.01_Sb_1.99_)_Σ=4_S_13.00_; light phase: (Cu_10.03_Zn_1.84_Fe_0.13_)_Σ=12_(Sb_3.18_As_0.82_)_Σ=4_S_13.00_ ; = gray phase
x	intensity
399.193	0.237865
408.835	0.266215
418.477	0.281584
428.12	0.262556
437.762	0.252215
447.404	0.293417
457.047	0.307482
466.689	0.322191
476.331	0.3301
485.974	0.336453
495.616	0.340534
505.258	0.348434
514.901	0.354858
524.543	0.356125
534.185	0.358423
543.828	0.363343
553.47	0.370445
563.112	0.374396
572.755	0.381431
582.397	0.387653
592.039	0.398576
601.682	0.398816
611.324	0.404987
620.966	0.411666
630.609	0.405271
640.251	0.403518
649.893	0.405209
659.536	0.407327
669.178	0.409149
678.82	0.408688
688.463	0.411684
698.105	0.419577
707.747	0.425845
717.39	0.429962
727.032	0.436128
736.674	0.443084
746.317	0.446841
755.959	0.45442
765.601	0.460529
775.244	0.465787
784.886	0.469408
794.528	0.47445
804.171	0.476376
813.813	0.477424
823.455	0.479664
833.098	0.48179
842.74	0.48507
852.382	0.488002
862.025	0.491784
871.667	0.494833
881.309	0.489795
890.952	0.486837
900.594	0.485781
910.236	0.485439
919.879	0.486339
929.521	0.487674
939.163	0.49049
948.806	0.493851
958.448	0.496922
968.09	0.50071
977.733	0.504718
987.375	0.510134
997.017	0.517492
1006.66	0.524651
1016.3	0.5319
1025.94	0.535183
1035.59	0.544671
1045.23	0.551426
1054.87	0.55823
1064.51	0.562212
1074.16	0.565685
1083.8	0.567491
1093.44	0.56891
1103.08	0.56843
1112.72	0.566386
1122.37	0.560977
1132.01	0.556261
1141.65	0.552482
1151.3	0.547694
1160.94	0.541413
1170.58	0.532349
1180.22	0.525393
1189.86	0.519466
1199.51	0.513196
1209.15	0.507657
1218.79	0.502072
1228.43	0.500525
1238.08	0.503037
1247.72	0.508251
1257.36	0.513489
1267	0.51763
1276.64	0.522116
1286.29	0.527039
1295.93	0.530935
1305.57	0.534693
1315.21	0.538127
1324.86	0.541274
1334.5	0.545225
1344.14	0.548815
1353.78	0.553476
1363.43	0.556451
1373.07	0.56009
1382.71	0.561434
1392.35	0.563135
1401.99	0.567299
1411.64	0.570204
1421.28	0.572721
1430.92	0.575372
1440.57	0.577588
1450.21	0.581922
1459.85	0.583757
1469.49	0.582836
1479.13	0.584989
1488.78	0.58799
1498.42	0.5902
1508.06	0.593612
1517.7	0.594327
1527.35	0.596586
1536.99	0.599429
1546.63	0.601834
1556.27	0.604627
1565.91	0.608398
1575.56	0.610572
1585.2	0.613422
1594.84	0.615771
1604.48	0.618272
1614.13	0.619506
1623.77	0.621128
1633.41	0.622614
1643.05	0.623027
1652.7	0.62195
1662.34	0.621351
1671.98	0.621811
1681.62	0.621814
1691.27	0.62332
1700.91	0.625013
1710.55	0.627469
1720.19	0.630333
1729.84	0.632133
1739.48	0.633162
1749.12	0.632159
1758.76	0.629072
1768.4	0.632488
1778.05	0.635234
1787.69	0.635973
1797.33	0.63802
1806.97	0.639364
1816.62	0.639458
1826.26	0.641715
1835.9	0.643163
1845.54	0.644929
1855.18	0.64568
1864.83	0.646603
1874.47	0.648602
1884.11	0.649318
1893.75	0.649955
1903.4	0.651082
1913.04	0.651911
1922.68	0.650026
1932.32	0.650597
1941.97	0.652921
1951.61	0.649901
1961.25	0.643794
1970.89	0.641568
1980.54	0.638505
1990.18	0.64726
1999.82	0.647396
2009.46	0.64114
2019.11	0.642292
2028.75	0.643685
2038.39	0.655414
2048.03	0.659745
2057.67	0.664717
2067.32	0.670982
2076.96	0.676671
2086.6	0.677214
2096.24	0.680029
2105.89	0.683368
2115.53	0.680429
2125.17	0.681347
2134.81	0.676718
2144.45	0.670512
2154.1	0.662227
2163.74	0.672113
2173.38	0.668679
2183.02	0.679097
2192.67	0.685499
2202.31	0.688217
2211.95	0.690405
2221.59	0.690571
2231.24	0.698114
2240.88	0.701267
2250.52	0.705164
2260.16	0.710283
2269.8	0.713034
2279.45	0.714559
2289.09	0.72283
2298.73	0.724197
2308.38	0.729159
2318.02	0.731589
2327.66	0.734127
2337.3	0.733924
2346.94	0.736363
2356.59	0.740542
2366.23	0.739558
2375.87	0.73998
2385.51	0.74037
2395.16	0.742385
2404.8	0.742573
2414.44	0.745002
2424.08	0.745326
2433.72	0.746262
2443.37	0.748435
2453.01	0.747324
2462.65	0.752222
2472.29	0.753805
2481.94	0.754913
2491.58	0.755311
2501.22	0.759847
2510.86	0.760308
2520.51	0.761183
2530.15	0.762062
2539.79	0.764015
2549.43	0.766746
2559.07	0.769091
2568.72	0.770511
2578.36	0.772389
2588	0.775239
2597.64	0.778581
2607.29	0.781443
2616.93	0.779778
2626.57	0.784369
2636.21	0.788382
2645.86	0.789178
2655.5	0.792488
2665.14	0.793535
2674.78	0.79648
2684.43	0.796712
2694.07	0.799047
2703.71	0.802141
2713.35	0.80324
2722.99	0.805432
2732.64	0.806825
2742.28	0.806739
2751.92	0.810533
2761.56	0.810931
2771.21	0.814472
2780.85	0.814893
2790.49	0.816045
2800.13	0.819258
2809.78	0.820556
2819.42	0.822707
2829.06	0.826544
2838.7	0.829308
2848.34	0.836753
2857.99	0.829338
2867.63	0.831029
2877.27	0.834707
2886.91	0.835192
2896.56	0.840243
2906.2	0.842684
2915.84	0.848365
2925.48	0.844735
2935.13	0.838235
2944.77	0.835012
2954.41	0.840919
2964.05	0.83894
2973.7	0.838747
2983.34	0.83633
2992.98	0.843181
3002.62	0.843948
3012.26	0.848746
3021.91	0.847007
3031.55	0.852408
3041.19	0.852936
3050.83	0.853456
3060.48	0.857075
3070.12	0.861054
3079.76	0.860463
3089.4	0.860247
3099.05	0.86633
3108.69	0.865163
3118.33	0.86556
3127.97	0.866093
3137.61	0.868529
3147.26	0.870888
3156.9	0.874724
3166.54	0.8773
3176.18	0.873924
3185.83	0.876787
3195.47	0.874087
3205.11	0.879466
3214.75	0.88094
3224.4	0.882428
3234.04	0.888838
3243.68	0.886187
3253.32	0.88585
3262.97	0.889489
3272.61	0.891376
3282.25	0.890592
3291.89	0.888254
3301.53	0.891927
3311.18	0.88877
3320.82	0.892825
3330.46	0.894122
3340.1	0.895011
3349.75	0.892924
3359.39	0.893674
3369.03	0.892381
3378.67	0.897129
3388.32	0.891412
3397.96	0.891634
3407.6	0.893273
3417.24	0.891984
3426.89	0.89279
3436.53	0.898433
3446.17	0.892428
3455.81	0.895729
3465.45	0.896568
3475.1	0.892439
3484.74	0.896062
3494.38	0.895378
3504.02	0.889319
3513.67	0.895597
3523.31	0.891898
3532.95	0.899352
3542.59	0.895521
3552.24	0.892433
3561.88	0.890426
3571.52	0.897571
3581.16	0.90028
3590.8	0.899489
3600.45	0.901896
3610.09	0.903863
3619.73	0.908159
3629.37	0.909054
3639.02	0.906494
3648.66	0.914508
3658.3	0.918065
3667.94	0.917842
3677.59	0.922894
3687.23	0.92412
3696.87	0.92015
3706.51	0.918963
3716.16	0.929126
3725.8	0.930642
3735.44	0.925781
3745.08	0.939211
3754.72	0.933718
3764.37	0.935617
3774.01	0.942741
3783.65	0.936785
3793.29	0.939854
3802.94	0.945452
3812.58	0.953724
3822.22	0.94755
3831.86	0.952129
3841.51	0.955863
3851.15	0.958789
3860.79	0.960064
3870.43	0.95756
3880.07	0.957811
3889.72	0.964714
3899.36	0.966442
3909	0.975216
3918.64	0.974082
3928.29	0.97023
3937.93	0.974051
3947.57	0.972376
3957.21	0.978194
3966.86	0.973953
3976.5	0.978991
3986.14	0.986483
3995.78	0.982556
