Measurement: Infrared, Infrared Data Processed
Mineral: Tennantite-(Zn)
Rruff sample: R050474
Ideal chemistry: Cu^1+^_6_(Cu^1+^_4_Zn^2+^_2_)As^3+^_4_S^2-^_13_
Locality: Daily Judge mine, Park City, Utah, USA
Source: California Institute of Technology
Description: Black crystals associated with pyrite
Measured chemistry: (Cu_10.01_Zn_1.66_Fe_0.33_)_Î£=12_As_4.00_S_13.00_
x	intensity
374.123	0.166109
383.765	0.151697
393.407	0.155532
403.05	0.175924
412.692	0.203003
422.334	0.21252
431.976	0.214108
441.619	0.220475
451.261	0.231711
460.904	0.235865
470.546	0.237447
480.188	0.236868
489.83	0.238237
499.473	0.241387
509.115	0.244964
518.758	0.250424
528.4	0.252477
538.042	0.254633
547.684	0.257836
557.327	0.260844
566.969	0.265455
576.611	0.271355
586.254	0.27842
595.896	0.286513
605.538	0.292241
615.181	0.292893
624.823	0.292017
634.466	0.277726
644.108	0.269162
653.75	0.267771
663.393	0.267703
673.035	0.266398
682.677	0.264946
692.319	0.265236
701.962	0.264833
711.604	0.265867
721.246	0.267373
730.889	0.270653
740.531	0.273799
750.173	0.277894
759.816	0.282119
769.458	0.286952
779.101	0.290866
788.743	0.294507
798.385	0.297766
808.028	0.299801
817.67	0.301391
827.312	0.303022
836.955	0.304321
846.597	0.306171
856.239	0.305918
865.881	0.30516
875.524	0.303132
885.166	0.299694
894.808	0.295554
904.451	0.292849
914.093	0.292274
923.736	0.29283
933.378	0.295263
943.02	0.298706
952.663	0.304197
962.305	0.311842
971.947	0.319746
981.59	0.328567
991.232	0.33482
1000.87	0.344333
1010.52	0.354828
1020.16	0.365667
1029.8	0.374297
1039.44	0.384422
1049.09	0.398028
1058.73	0.412005
1068.37	0.421344
1078.01	0.420488
1087.65	0.415292
1097.3	0.416912
1106.94	0.414441
1116.58	0.394732
1126.22	0.36194
1135.87	0.324344
1145.51	0.294069
1155.15	0.282174
1164.79	0.279004
1174.44	0.277021
1184.08	0.275596
1193.72	0.274252
1203.36	0.272351
1213.01	0.270389
1222.65	0.269348
1232.29	0.269057
1241.93	0.269526
1251.58	0.271238
1261.22	0.273605
1270.86	0.276125
1280.5	0.278984
1290.14	0.281597
1299.79	0.284394
1309.43	0.286969
1319.07	0.289514
1328.71	0.29201
1338.36	0.294628
1348	0.29709
1357.64	0.29925
1367.28	0.302075
1376.92	0.304472
1386.57	0.306375
1396.21	0.308755
1405.85	0.31127
1415.49	0.31334
1425.14	0.315688
1434.78	0.31758
1444.42	0.319017
1454.06	0.320873
1463.71	0.321696
1473.35	0.322937
1482.99	0.324482
1492.63	0.326278
1502.28	0.328531
1511.92	0.330226
1521.56	0.332316
1531.2	0.333673
1540.85	0.336133
1550.49	0.337616
1560.13	0.339977
1569.77	0.341747
1579.41	0.343571
1589.06	0.345927
1598.7	0.348105
1608.34	0.351059
1617.98	0.353786
1627.63	0.355488
1637.27	0.356745
1646.91	0.357043
1656.55	0.356396
1666.19	0.356456
1675.84	0.354615
1685.48	0.349708
1695.12	0.346929
1704.77	0.346337
1714.41	0.346773
1724.05	0.347716
1733.69	0.348587
1743.33	0.348126
1752.98	0.349067
1762.62	0.350383
1772.26	0.351062
1781.9	0.352479
1791.55	0.353569
1801.19	0.354828
1810.83	0.355903
1820.47	0.357374
1830.12	0.358781
1839.76	0.360055
1849.4	0.360719
1859.04	0.36227
1868.68	0.363748
1878.33	0.364379
1887.97	0.365825
1897.61	0.366986
1907.25	0.368812
1916.9	0.369652
1926.54	0.370847
1936.18	0.372293
1945.82	0.37145
1955.46	0.3728
1965.11	0.374948
1974.75	0.373615
1984.39	0.377313
1994.04	0.37801
2003.68	0.377398
2013.32	0.379631
2022.96	0.37833
2032.6	0.380418
2042.25	0.383375
2051.89	0.385139
2061.53	0.383928
2071.17	0.386693
2080.82	0.389376
2090.46	0.388111
2100.1	0.390578
2109.74	0.391353
2119.39	0.391069
2129.03	0.391648
2138.67	0.392156
2148.31	0.392525
2157.95	0.389899
2167.6	0.397292
2177.24	0.395293
2186.88	0.39708
2196.52	0.398819
2206.17	0.399574
2215.81	0.399975
2225.45	0.401315
2235.09	0.40382
2244.74	0.402894
2254.38	0.405666
2264.02	0.40635
2273.66	0.40904
2283.3	0.410199
2292.95	0.410209
2302.59	0.411153
2312.23	0.411423
2321.87	0.412885
2331.52	0.412521
2341.16	0.413234
2350.8	0.414102
2360.44	0.414671
2370.09	0.41568
2379.73	0.416187
2389.37	0.418463
2399.01	0.418457
2408.66	0.420225
2418.3	0.421259
2427.94	0.421672
2437.58	0.422646
2447.22	0.423509
2456.87	0.424531
2466.51	0.425304
2476.15	0.425502
2485.79	0.425792
2495.44	0.427093
2505.08	0.427849
2514.72	0.427885
2524.36	0.428289
2534.01	0.429541
2543.65	0.42985
2553.29	0.431128
2562.93	0.432413
2572.57	0.433198
2582.22	0.434486
2591.86	0.434738
2601.5	0.435732
2611.14	0.437071
2620.79	0.43828
2630.43	0.439459
2640.07	0.440475
2649.71	0.44127
2659.36	0.442676
2669	0.443796
2678.64	0.444823
2688.28	0.445798
2697.93	0.447436
2707.57	0.448653
2717.21	0.450443
2726.85	0.452001
2736.49	0.452658
2746.14	0.45479
2755.78	0.455686
2765.42	0.457663
2775.06	0.458845
2784.71	0.460233
2794.35	0.462328
2803.99	0.464231
2813.63	0.465497
2823.28	0.467169
2832.92	0.469557
2842.56	0.471003
2852.2	0.472307
2861.84	0.473588
2871.49	0.476206
2881.13	0.477775
2890.77	0.480446
2900.41	0.482326
2910.06	0.484338
2919.7	0.484704
2929.34	0.48699
2938.98	0.488453
2948.62	0.49044
2958.27	0.493173
2967.91	0.495057
2977.55	0.498072
2987.2	0.49998
2996.84	0.503125
3006.48	0.506473
3016.12	0.507705
3025.76	0.513281
3035.41	0.516043
3045.05	0.519922
3054.69	0.524194
3064.33	0.526794
3073.98	0.529978
3083.62	0.53301
3093.26	0.536104
3102.9	0.539271
3112.55	0.541649
3122.19	0.542638
3131.83	0.54391
3141.47	0.544864
3151.11	0.546011
3160.76	0.546511
3170.4	0.546392
3180.04	0.54671
3189.68	0.545292
3199.33	0.544172
3208.97	0.541673
3218.61	0.539442
3228.25	0.536361
3237.9	0.53419
3247.54	0.532419
3257.18	0.529584
3266.82	0.52886
3276.47	0.526587
3286.11	0.524477
3295.75	0.524275
3305.39	0.522337
3315.03	0.520107
3324.68	0.517171
3334.32	0.515795
3343.96	0.513494
3353.6	0.509751
3363.25	0.506504
3372.89	0.502883
3382.53	0.500354
3392.17	0.496482
3401.82	0.49275
3411.46	0.489928
3421.1	0.486635
3430.74	0.483632
3440.39	0.481119
3450.03	0.480145
3459.67	0.479732
3469.31	0.478436
3478.95	0.478019
3488.6	0.472811
3498.24	0.466771
3507.88	0.463342
3517.52	0.461184
3527.17	0.460105
3536.81	0.45811
3546.45	0.455948
3556.09	0.454498
3565.74	0.451857
3575.38	0.451323
3585.02	0.450148
3594.66	0.452428
3604.3	0.451407
3613.95	0.453082
3623.59	0.453985
3633.23	0.453565
3642.87	0.455003
3652.52	0.456634
3662.16	0.458237
3671.8	0.460792
3681.44	0.459113
3691.09	0.461418
3700.73	0.463772
3710.37	0.465078
3720.01	0.46568
3729.66	0.467592
3739.3	0.468112
3748.94	0.470789
3758.58	0.470349
3768.22	0.471864
3777.87	0.473426
3787.51	0.472816
3797.15	0.475583
3806.79	0.475937
3816.44	0.477476
3826.08	0.478783
3835.72	0.479228
3845.36	0.480769
3855.01	0.481132
3864.65	0.482044
3874.29	0.483818
3883.93	0.484759
3893.57	0.485139
3903.22	0.486461
3912.86	0.486357
3922.5	0.486113
3932.14	0.488871
3941.79	0.49038
3951.43	0.488173
3961.07	0.489361
3970.71	0.491559
3980.36	0.491685
3990	0.492944
3999.64	0.493931
