Measurement: Infrared, Infrared Data Processed
Mineral: Tetrahedrite-(Zn)
Rruff sample: R050302
Ideal chemistry: Cu^1+^_6_(Cu^1+^_4_Zn^2+^_2_)Sb^3+^_4_S^2-^_13_
Locality: Casapalca, Peru
Source: Eugene Schlepp
Description: Black tetrahedra associated with quartz and pyrite
Measured chemistry: (Cu_10.02_Zn_1.76_Fe_0.22_)_Σ=12_(Sb_2.42_As_1.58_)_Σ=4_S_13.00_
x	intensity
374.123	0.0397401
383.765	0.055223
393.407	0.0571018
403.05	0.0631556
412.692	0.0712953
422.334	0.0748957
431.976	0.07617
441.619	0.0762137
451.261	0.079902
460.904	0.0819847
470.546	0.0841767
480.188	0.0862116
489.83	0.0868854
499.473	0.0877619
509.115	0.088949
518.758	0.0897344
528.4	0.0906626
538.042	0.0913089
547.684	0.0917804
557.327	0.0922987
566.969	0.0925634
576.611	0.0937846
586.254	0.0960074
595.896	0.0977355
605.538	0.0962003
615.181	0.0968893
624.823	0.0980956
634.466	0.0974494
644.108	0.0976205
653.75	0.0987815
663.393	0.0996263
673.035	0.100213
682.677	0.0991622
692.319	0.0992594
701.962	0.100031
711.604	0.100415
721.246	0.100879
730.889	0.101558
740.531	0.102274
750.173	0.103095
759.816	0.103624
769.458	0.104529
779.101	0.105119
788.743	0.106264
798.385	0.106858
808.028	0.106901
817.67	0.106942
827.312	0.106601
836.955	0.106561
846.597	0.106728
856.239	0.107246
865.881	0.107525
875.524	0.107972
885.166	0.107213
894.808	0.107517
904.451	0.10765
914.093	0.108082
923.736	0.108333
933.378	0.108636
943.02	0.109427
952.663	0.110265
962.305	0.11091
971.947	0.111723
981.59	0.112548
991.232	0.113133
1000.87	0.114404
1010.52	0.115862
1020.16	0.116739
1029.8	0.11643
1039.44	0.118052
1049.09	0.119471
1058.73	0.121101
1068.37	0.122595
1078.01	0.123603
1087.65	0.12437
1097.3	0.124797
1106.94	0.125391
1116.58	0.124916
1126.22	0.124207
1135.87	0.123231
1145.51	0.122693
1155.15	0.121661
1164.79	0.120552
1174.44	0.119282
1184.08	0.118247
1193.72	0.117608
1203.36	0.116419
1213.01	0.115275
1222.65	0.113566
1232.29	0.112376
1241.93	0.11212
1251.58	0.112608
1261.22	0.113077
1270.86	0.113661
1280.5	0.114504
1290.14	0.11472
1299.79	0.115307
1309.43	0.115889
1319.07	0.116356
1328.71	0.116944
1338.36	0.117334
1348	0.117618
1357.64	0.118116
1367.28	0.118781
1376.92	0.119287
1386.57	0.119695
1396.21	0.120262
1405.85	0.120707
1415.49	0.121144
1425.14	0.121604
1434.78	0.122018
1444.42	0.122357
1454.06	0.122529
1463.71	0.122636
1473.35	0.123188
1482.99	0.123294
1492.63	0.123828
1502.28	0.123989
1511.92	0.123945
1521.56	0.124096
1531.2	0.12416
1540.85	0.124723
1550.49	0.124754
1560.13	0.125342
1569.77	0.125383
1579.41	0.125684
1589.06	0.126059
1598.7	0.126335
1608.34	0.126555
1617.98	0.127152
1627.63	0.127157
1637.27	0.127628
1646.91	0.127787
1656.55	0.127615
1666.19	0.127734
1675.84	0.12789
1685.48	0.128453
1695.12	0.128381
1704.77	0.128718
1714.41	0.128831
1724.05	0.128891
1733.69	0.129328
1743.33	0.12844
1752.98	0.128762
1762.62	0.129609
1772.26	0.130144
1781.9	0.13004
1791.55	0.130323
1801.19	0.130193
1810.83	0.130492
1820.47	0.130708
1830.12	0.130784
1839.76	0.130868
1849.4	0.131212
1859.04	0.131689
1868.68	0.131959
1878.33	0.131592
1887.97	0.132111
1897.61	0.132758
1907.25	0.132612
1916.9	0.133078
1926.54	0.13372
1936.18	0.13297
1945.82	0.134057
1955.46	0.133303
1965.11	0.134934
1974.75	0.135021
1984.39	0.135011
1994.04	0.135337
2003.68	0.133549
2013.32	0.13469
2022.96	0.135038
2032.6	0.137327
2042.25	0.135822
2051.89	0.136509
2061.53	0.136341
2071.17	0.136411
2080.82	0.137487
2090.46	0.137249
2100.1	0.137525
2109.74	0.13784
2119.39	0.137999
2129.03	0.138915
2138.67	0.137986
2148.31	0.138229
2157.95	0.138849
2167.6	0.139003
2177.24	0.139548
2186.88	0.140542
2196.52	0.13983
2206.17	0.140211
2215.81	0.139434
2225.45	0.139752
2235.09	0.141058
2244.74	0.140064
2254.38	0.140636
2264.02	0.140762
2273.66	0.140735
2283.3	0.141934
2292.95	0.141505
2302.59	0.141342
2312.23	0.142119
2321.87	0.142682
2331.52	0.142723
2341.16	0.142829
2350.8	0.142371
2360.44	0.143699
2370.09	0.143552
2379.73	0.142865
2389.37	0.14268
2399.01	0.143076
2408.66	0.143274
2418.3	0.143239
2427.94	0.143133
2437.58	0.143146
2447.22	0.143864
2456.87	0.143592
2466.51	0.144192
2476.15	0.144408
2485.79	0.14447
2495.44	0.144476
2505.08	0.144664
2514.72	0.14486
2524.36	0.145186
2534.01	0.145526
2543.65	0.145567
2553.29	0.145548
2562.93	0.146152
2572.57	0.146375
2582.22	0.146137
2591.86	0.146561
2601.5	0.146521
2611.14	0.147058
2620.79	0.147118
2630.43	0.147363
2640.07	0.147409
2649.71	0.147889
2659.36	0.148061
2669	0.148539
2678.64	0.14841
2688.28	0.148537
2697.93	0.149172
2707.57	0.148838
2717.21	0.149229
2726.85	0.14963
2736.49	0.149763
2746.14	0.149995
2755.78	0.14999
2765.42	0.1501
2775.06	0.150428
2784.71	0.150537
2794.35	0.150694
2803.99	0.150814
2813.63	0.151176
2823.28	0.151415
2832.92	0.151514
2842.56	0.150667
2852.2	0.149996
2861.84	0.150833
2871.49	0.151875
2881.13	0.15221
2890.77	0.151882
2900.41	0.151991
2910.06	0.151431
2919.7	0.150112
2929.34	0.150832
2938.98	0.151847
2948.62	0.152443
2958.27	0.152683
2967.91	0.152725
2977.55	0.153241
2987.2	0.153429
2996.84	0.15396
3006.48	0.154214
3016.12	0.153762
3025.76	0.154439
3035.41	0.154628
3045.05	0.154795
3054.69	0.155832
3064.33	0.155658
3073.98	0.155821
3083.62	0.156314
3093.26	0.156339
3102.9	0.156322
3112.55	0.156934
3122.19	0.157328
3131.83	0.157424
3141.47	0.157154
3151.11	0.157355
3160.76	0.157685
3170.4	0.158303
3180.04	0.158399
3189.68	0.157885
3199.33	0.158369
3208.97	0.158565
3218.61	0.158954
3228.25	0.159036
3237.9	0.158986
3247.54	0.158407
3257.18	0.159411
3266.82	0.158676
3276.47	0.159344
3286.11	0.158756
3295.75	0.159871
3305.39	0.15972
3315.03	0.159175
3324.68	0.159494
3334.32	0.159915
3343.96	0.158719
3353.6	0.160013
3363.25	0.159418
3372.89	0.158631
3382.53	0.15963
3392.17	0.158556
3401.82	0.159138
3411.46	0.158723
3421.1	0.158923
3430.74	0.158559
3440.39	0.15877
3450.03	0.158532
3459.67	0.158643
3469.31	0.159306
3478.95	0.159133
3488.6	0.15912
3498.24	0.158359
3507.88	0.158676
3517.52	0.158663
3527.17	0.158574
3536.81	0.15852
3546.45	0.158666
3556.09	0.159122
3565.74	0.159384
3575.38	0.159091
3585.02	0.159021
3594.66	0.159871
3604.3	0.15899
3613.95	0.159766
3623.59	0.160378
3633.23	0.160963
3642.87	0.160683
3652.52	0.161546
3662.16	0.161792
3671.8	0.161768
3681.44	0.161963
3691.09	0.162587
3700.73	0.163619
3710.37	0.162444
3720.01	0.162617
3729.66	0.16243
3739.3	0.162822
3748.94	0.163932
3758.58	0.163523
3768.22	0.163084
3777.87	0.163617
3787.51	0.16322
3797.15	0.16451
3806.79	0.164535
3816.44	0.164748
3826.08	0.165428
3835.72	0.164816
3845.36	0.16567
3855.01	0.166609
3864.65	0.166239
3874.29	0.165753
3883.93	0.165371
3893.57	0.166162
3903.22	0.166014
3912.86	0.166385
3922.5	0.165883
3932.14	0.166605
3941.79	0.165215
3951.43	0.166629
3961.07	0.167416
3970.71	0.167129
3980.36	0.167648
3990	0.167318
3999.64	0.166898
