Measurement: Infrared, Infrared Data Processed
Mineral: Thomsonite-Ca
Rruff sample: R050103
Ideal chemistry: NaCa_2_(Al_5_Si_5_)O_20_6H_2_O
Locality: Seeberg, Bohemia, Czech Republic
Source: Rock Currier
Description: Colorless prismatic crystals
Measured chemistry: Na_1.00_(Ca_0.92_Sr_0.08_)_2_(Al_5.00_Si_5.00_)O_20_Â·6H_2_O
x	intensity
399.193	0.12891
408.835	0.131709
418.477	0.128797
428.12	0.106485
437.762	0.102989
447.404	0.0640292
457.047	0.0468834
466.689	0.0505318
476.331	0.0509718
485.974	0.0569763
495.616	0.0682529
505.258	0.0773087
514.901	0.0819801
524.543	0.0868001
534.185	0.0922803
543.828	0.0902053
553.47	0.0886061
563.112	0.0916484
572.755	0.100957
582.397	0.108149
592.039	0.100402
601.682	0.0807814
611.324	0.0805592
620.966	0.0974038
630.609	0.0998782
640.251	0.0812778
649.893	0.0625842
659.536	0.0664399
669.178	0.0610297
678.82	0.0494624
688.463	0.0451185
698.105	0.0455186
707.747	0.0421018
717.39	0.0368434
727.032	0.0329401
736.674	0.0325947
746.317	0.0288766
755.959	0.0206633
765.601	0.0167386
775.244	0.0161079
784.886	0.0166607
794.528	0.0178376
804.171	0.0196403
813.813	0.0226694
823.455	0.0269655
833.098	0.0308775
842.74	0.0373088
852.382	0.046386
862.025	0.0593875
871.667	0.0758468
881.309	0.0994316
890.952	0.127557
900.594	0.1453
910.236	0.168307
919.879	0.172048
929.521	0.186604
939.163	0.184689
948.806	0.167291
958.448	0.164858
968.09	0.15838
977.733	0.153729
987.375	0.152394
997.017	0.147688
1006.66	0.12879
1016.3	0.104606
1025.94	0.0820855
1035.59	0.0682135
1045.23	0.0683031
1054.87	0.0751984
1064.51	0.0658698
1074.16	0.0517754
1083.8	0.040351
1093.44	0.030567
1103.08	0.0222264
1112.72	0.0161349
1122.37	0.0122084
1132.01	0.00979788
1141.65	0.00789206
1151.3	0.00647869
1160.94	0.00528111
1170.58	0.00477072
1180.22	0.00398918
1189.86	0.00356911
1199.51	0.00321565
1209.15	0.0030269
1218.79	0.00279806
1228.43	0.00268526
1238.08	0.00270725
1247.72	0.00265031
1257.36	0.00249104
1267	0.00249431
1276.64	0.00248877
1286.29	0.00290644
1295.93	0.00269856
1305.57	0.00246505
1315.21	0.00278579
1324.86	0.00285123
1334.5	0.00283909
1344.14	0.00290566
1353.78	0.00278917
1363.43	0.00325349
1373.07	0.00305849
1382.71	0.00311919
1392.35	0.00316263
1401.99	0.0032329
1411.64	0.00332755
1421.28	0.00350215
1430.92	0.0034187
1440.57	0.00346638
1450.21	0.00336791
1459.85	0.003468
1469.49	0.00301782
1479.13	0.00338174
1488.78	0.00365163
1498.42	0.00392922
1508.06	0.00413773
1517.7	0.00407874
1527.35	0.00406506
1536.99	0.00460113
1546.63	0.00460026
1556.27	0.00552616
1565.91	0.00571112
1575.56	0.00682143
1585.2	0.00751276
1594.84	0.00980585
1604.48	0.0108341
1614.13	0.00945585
1623.77	0.00812894
1633.41	0.00801127
1643.05	0.00796532
1652.7	0.00939171
1662.34	0.0104659
1671.98	0.0150451
1681.62	0.0177046
1691.27	0.00907778
1700.91	0.00484564
1710.55	0.00282114
1720.19	0.00235937
1729.84	0.00157326
1739.48	0.00102617
1749.12	0.000923257
1758.76	0.00104608
1768.4	0.000966481
1778.05	0.000562289
1787.69	0.000939028
1797.33	0.000811854
1806.97	0.000888724
1816.62	0.000400754
1826.26	0.000557345
1835.9	0.000208088
1845.54	0.000966105
1855.18	0.000376872
1864.83	6.75371e-05
1874.47	-0.000738614
1884.11	-0.000131394
1893.75	-0.000361215
1903.4	-0.000110974
1913.04	-0.000472983
1922.68	-0.000433786
1932.32	-0.00129752
1941.97	-0.00128224
1951.61	-0.00112614
1961.25	-0.000491971
1970.89	-0.00242521
1980.54	0.00138258
1990.18	0.000449458
1999.82	-0.00136267
2009.46	0.00135057
2019.11	-0.000655674
2028.75	0.000665537
2038.39	0.00099422
2048.03	0.00290155
2057.67	0.00221036
2067.32	0.00196065
2076.96	0.00184521
2086.6	0.00171255
2096.24	0.000884435
2105.89	0.00200093
2115.53	0.00120424
2125.17	0.00251541
2134.81	0.000865122
2144.45	7.38855e-05
2154.1	0.00222128
2163.74	0.00403563
2173.38	0.00335747
2183.02	0.00220759
2192.67	0.00351083
2202.31	0.00218267
2211.95	0.00257329
2221.59	0.00474026
2231.24	0.00338615
2240.88	0.00340125
2250.52	0.0038495
2260.16	0.00393498
2269.8	0.00447917
2279.45	0.00451631
2289.09	0.0051524
2298.73	0.00372473
2308.38	0.00422659
2318.02	0.00488435
2327.66	0.00441757
2337.3	0.00502489
2346.94	0.00363259
2356.59	0.0047104
2366.23	0.00431016
2375.87	0.00285204
2385.51	0.00285579
2395.16	0.00291312
2404.8	0.00226115
2414.44	0.00282404
2424.08	0.00226131
2433.72	0.00242545
2443.37	0.00301549
2453.01	0.00324481
2462.65	0.00247971
2472.29	0.00357713
2481.94	0.00228191
2491.58	0.00367128
2501.22	0.00326708
2510.86	0.00259918
2520.51	0.00310288
2530.15	0.00310318
2539.79	0.00273452
2549.43	0.00352554
2559.07	0.00327033
2568.72	0.00342927
2578.36	0.00397515
2588	0.00452105
2597.64	0.00404807
2607.29	0.00367264
2616.93	0.00413193
2626.57	0.00467103
2636.21	0.00418308
2645.86	0.00426927
2655.5	0.00400779
2665.14	0.00343763
2674.78	0.00385757
2684.43	0.00331402
2694.07	0.00409681
2703.71	0.00332081
2713.35	0.00363217
2722.99	0.00409221
2732.64	0.00386966
2742.28	0.00391813
2751.92	0.00424241
2761.56	0.00449355
2771.21	0.00435856
2780.85	0.00436898
2790.49	0.00501844
2800.13	0.00516835
2809.78	0.00527141
2819.42	0.00521594
2829.06	0.00558665
2838.7	0.00563658
2848.34	0.00613829
2857.99	0.00580425
2867.63	0.0059867
2877.27	0.00572993
2886.91	0.00645753
2896.56	0.00651287
2906.2	0.00658169
2915.84	0.00666209
2925.48	0.00671464
2935.13	0.0067622
2944.77	0.00706254
2954.41	0.00790381
2964.05	0.00799068
2973.7	0.00884459
2983.34	0.00895421
2992.98	0.0111611
3002.62	0.0115365
3012.26	0.0103673
3021.91	0.011975
3031.55	0.0130791
3041.19	0.0133092
3050.83	0.0147709
3060.48	0.0153745
3070.12	0.0165725
3079.76	0.0159005
3089.4	0.0181689
3099.05	0.0177003
3108.69	0.0200808
3118.33	0.0207518
3127.97	0.0204363
3137.61	0.0222709
3147.26	0.023919
3156.9	0.0247389
3166.54	0.0257502
3176.18	0.0270933
3185.83	0.0291394
3195.47	0.0287916
3205.11	0.0309896
3214.75	0.0320578
3224.4	0.0345578
3234.04	0.034463
3243.68	0.0371517
3253.32	0.0392458
3262.97	0.0384726
3272.61	0.0394516
3282.25	0.0396749
3291.89	0.0389104
3301.53	0.0374266
3311.18	0.0363906
3320.82	0.0358743
3330.46	0.0353961
3340.1	0.0364354
3349.75	0.0363722
3359.39	0.0365201
3369.03	0.0351529
3378.67	0.0356433
3388.32	0.0330778
3397.96	0.0329474
3407.6	0.0323691
3417.24	0.0319955
3426.89	0.0296088
3436.53	0.0294357
3446.17	0.0278737
3455.81	0.0264221
3465.45	0.0255013
3475.1	0.0244963
3484.74	0.0242922
3494.38	0.0224223
3504.02	0.0215836
3513.67	0.0208864
3523.31	0.0202545
3532.95	0.018366
3542.59	0.0167671
3552.24	0.0165951
3561.88	0.0142572
3571.52	0.0124449
3581.16	0.00873473
3590.8	0.00726824
3600.45	0.00685333
3610.09	0.0048691
3619.73	0.00159257
3629.37	0.000934622
3639.02	-0.00102292
3648.66	-0.000789208
3658.3	-0.00294625
3667.94	-0.00224764
3677.59	-0.000792499
3687.23	-0.00235698
3696.87	-0.00240304
3706.51	-0.00237071
3716.16	-0.00384965
3725.8	-0.00214627
3735.44	-0.00258046
3745.08	-0.00168179
3754.72	-0.00382697
3764.37	-0.00221666
3774.01	-0.00193515
3783.65	-0.00250828
3793.29	-0.000979442
3802.94	-0.00313058
3812.58	-0.00195417
3822.22	-0.00341356
3831.86	-0.0026519
3841.51	-0.0025625
3851.15	-0.00205347
3860.79	-0.00267573
3870.43	-0.00307491
3880.07	-0.00325937
3889.72	-0.00181196
3899.36	-0.00259088
3909	-0.00167621
3918.64	-0.00333772
3928.29	-0.0034659
3937.93	-0.0026719
3947.57	-0.00301488
3957.21	-0.00264306
3966.86	-0.00258419
3976.5	-0.00261353
3986.14	-0.00270956
3995.78	-0.00280008
