Measurement: Infrared, Infrared Data Processed
Mineral: Thomsonite-Ca
Rruff sample: R050091
Ideal chemistry: NaCa_2_(Al_5_Si_5_)O_20_6H_2_O
Locality: Amudikha River, near Mirny, Yakutia, Siberia, Russia
Source: Rock Currier
Description: Radial groups of colorless bladed crystals
Measured chemistry: (Na_0.94_[box]_0.06_)_Σ=1_(Ca_1.71_Na_0.29_)_Σ=2_(Si_5.35_Al_4.65_)O_20_·7.09H_2_O
x	intensity
399.193	0.18328
408.835	0.192079
418.477	0.17251
428.12	0.153702
437.762	0.139996
447.404	0.088017
457.047	0.0704539
466.689	0.0722447
476.331	0.0724984
485.974	0.079102
495.616	0.09252
505.258	0.103603
514.901	0.109993
524.543	0.118485
534.185	0.125386
543.828	0.126729
553.47	0.122934
563.112	0.126823
572.755	0.141304
582.397	0.153454
592.039	0.145164
601.682	0.116881
611.324	0.115215
620.966	0.138118
630.609	0.142207
640.251	0.117596
649.893	0.0910368
659.536	0.0959366
669.178	0.0888333
678.82	0.072193
688.463	0.0656145
698.105	0.0651054
707.747	0.0607992
717.39	0.0547586
727.032	0.049537
736.674	0.04814
746.317	0.0433337
755.959	0.0325651
765.601	0.025883
775.244	0.0236517
784.886	0.0224531
794.528	0.0219418
804.171	0.0223957
813.813	0.0241995
823.455	0.026831
833.098	0.0303439
842.74	0.0361569
852.382	0.0444026
862.025	0.0564262
871.667	0.0736439
881.309	0.105119
890.952	0.156272
900.594	0.194612
910.236	0.250965
919.879	0.261686
929.521	0.29604
939.163	0.296536
948.806	0.266021
958.448	0.267655
968.09	0.26162
977.733	0.255979
987.375	0.252304
997.017	0.238911
1006.66	0.202252
1016.3	0.161283
1025.94	0.127017
1035.59	0.10667
1045.23	0.106246
1054.87	0.115724
1064.51	0.104945
1074.16	0.0858204
1083.8	0.0689111
1093.44	0.053891
1103.08	0.0418727
1112.72	0.0321323
1122.37	0.0253364
1132.01	0.0213863
1141.65	0.0174814
1151.3	0.0147499
1160.94	0.0127173
1170.58	0.0109903
1180.22	0.00946725
1189.86	0.00830767
1199.51	0.00719625
1209.15	0.00633427
1218.79	0.00573961
1228.43	0.00541734
1238.08	0.00489097
1247.72	0.00450681
1257.36	0.00423947
1267	0.00435419
1276.64	0.00439901
1286.29	0.00393786
1295.93	0.00408527
1305.57	0.00411637
1315.21	0.00376702
1324.86	0.00376167
1334.5	0.00393047
1344.14	0.00396174
1353.78	0.00384841
1363.43	0.00377174
1373.07	0.00406559
1382.71	0.00399585
1392.35	0.00426466
1401.99	0.00470134
1411.64	0.00502858
1421.28	0.00508975
1430.92	0.00510989
1440.57	0.00492054
1450.21	0.00504554
1459.85	0.00462457
1469.49	0.00462657
1479.13	0.00478554
1488.78	0.00469638
1498.42	0.00483788
1508.06	0.00452683
1517.7	0.00494219
1527.35	0.00530938
1536.99	0.00544825
1546.63	0.00636061
1556.27	0.00649324
1565.91	0.00713387
1575.56	0.00777915
1585.2	0.00946132
1594.84	0.0125345
1604.48	0.0140271
1614.13	0.0117517
1623.77	0.0103806
1633.41	0.0103563
1643.05	0.0115768
1652.7	0.0116721
1662.34	0.0140812
1671.98	0.0197373
1681.62	0.0241121
1691.27	0.0117608
1700.91	0.00526911
1710.55	0.00367053
1720.19	0.00251872
1729.84	0.00187693
1739.48	0.00126051
1749.12	0.00104716
1758.76	0.00117403
1768.4	0.00132778
1778.05	0.00134134
1787.69	0.00100632
1797.33	0.000657144
1806.97	0.00051537
1816.62	0.000135985
1826.26	-1.41595e-05
1835.9	5.55404e-05
1845.54	9.32596e-05
1855.18	-0.00039927
1864.83	-0.000445996
1874.47	-0.000436569
1884.11	-0.000800438
1893.75	-0.00185242
1903.4	-0.000928522
1913.04	-0.000913154
1922.68	-0.00133536
1932.32	-0.00188804
1941.97	-0.00287031
1951.61	-0.00370352
1961.25	-0.00447053
1970.89	-0.0075586
1980.54	-0.00250722
1990.18	-0.0035107
1999.82	-0.00428558
2009.46	-0.00488173
2019.11	-0.00474634
2028.75	-0.00470569
2038.39	-0.00250449
2048.03	0.000376293
2057.67	-0.00199821
2067.32	-0.000273952
2076.96	0.00157476
2086.6	0.000994259
2096.24	0.00211109
2105.89	-0.000137659
2115.53	-5.08182e-05
2125.17	-0.00155347
2134.81	-0.00297077
2144.45	-0.0016646
2154.1	-0.00449225
2163.74	0.00195266
2173.38	0.000186892
2183.02	0.00370268
2192.67	0.00191769
2202.31	0.00340667
2211.95	0.00289421
2221.59	0.00182004
2231.24	0.00444479
2240.88	0.00207324
2250.52	0.00420779
2260.16	0.00421213
2269.8	0.00380412
2279.45	0.00476408
2289.09	0.00541059
2298.73	0.00498433
2308.38	0.0050652
2318.02	0.00510774
2327.66	0.00395428
2337.3	0.00341343
2346.94	0.00296181
2356.59	0.0029663
2366.23	0.00283833
2375.87	0.00260024
2385.51	0.00306748
2395.16	0.00274141
2404.8	0.00194235
2414.44	0.00242376
2424.08	0.00294389
2433.72	0.00269323
2443.37	0.00337697
2453.01	0.00266177
2462.65	0.00292789
2472.29	0.00243947
2481.94	0.00261929
2491.58	0.00305542
2501.22	0.00271309
2510.86	0.00350523
2520.51	0.00320739
2530.15	0.0028707
2539.79	0.00339104
2549.43	0.00344476
2559.07	0.00273478
2568.72	0.00346979
2578.36	0.00352832
2588	0.00410252
2597.64	0.00408325
2607.29	0.00410083
2616.93	0.00368105
2626.57	0.00447946
2636.21	0.00432518
2645.86	0.00488453
2655.5	0.00432202
2665.14	0.00389142
2674.78	0.00334594
2684.43	0.00342615
2694.07	0.00372257
2703.71	0.00344816
2713.35	0.00392898
2722.99	0.00426752
2732.64	0.00457336
2742.28	0.00401472
2751.92	0.00470971
2761.56	0.00569972
2771.21	0.00496619
2780.85	0.00545135
2790.49	0.0057244
2800.13	0.0060262
2809.78	0.00654976
2819.42	0.00608066
2829.06	0.0066309
2838.7	0.00730486
2848.34	0.00584592
2857.99	0.00666472
2867.63	0.00758912
2877.27	0.00745619
2886.91	0.00776749
2896.56	0.00711983
2906.2	0.00821582
2915.84	0.00753563
2925.48	0.00727897
2935.13	0.00697357
2944.77	0.00838339
2954.41	0.00902772
2964.05	0.0095335
2973.7	0.0115389
2983.34	0.0127278
2992.98	0.0134477
3002.62	0.0142719
3012.26	0.0139074
3021.91	0.0154928
3031.55	0.0170508
3041.19	0.0170972
3050.83	0.0183998
3060.48	0.0196163
3070.12	0.0195058
3079.76	0.0215639
3089.4	0.0229104
3099.05	0.0232343
3108.69	0.0257676
3118.33	0.026006
3127.97	0.0276793
3137.61	0.0286073
3147.26	0.0300968
3156.9	0.0319661
3166.54	0.0335716
3176.18	0.0351517
3185.83	0.0374149
3195.47	0.0389653
3205.11	0.0403828
3214.75	0.0429664
3224.4	0.0447842
3234.04	0.04805
3243.68	0.0471926
3253.32	0.0501262
3262.97	0.0514903
3272.61	0.0512904
3282.25	0.0516033
3291.89	0.051494
3301.53	0.0497926
3311.18	0.0492756
3320.82	0.0487834
3330.46	0.0468691
3340.1	0.0486056
3349.75	0.0501078
3359.39	0.0491496
3369.03	0.0490232
3378.67	0.0503807
3388.32	0.0482071
3397.96	0.0476568
3407.6	0.0463765
3417.24	0.0451386
3426.89	0.0439706
3436.53	0.0412777
3446.17	0.0406505
3455.81	0.0405184
3465.45	0.0394165
3475.1	0.0374347
3484.74	0.0367367
3494.38	0.0344327
3504.02	0.0330362
3513.67	0.0307648
3523.31	0.0304986
3532.95	0.0288838
3542.59	0.0276464
3552.24	0.0257075
3561.88	0.0225508
3571.52	0.0195951
3581.16	0.0176228
3590.8	0.0151476
3600.45	0.0132488
3610.09	0.0108196
3619.73	0.00851945
3629.37	0.00505982
3639.02	0.00548604
3648.66	0.00203464
3658.3	0.00297727
3667.94	0.00227966
3677.59	-0.000335792
3687.23	-5.26556e-05
3696.87	0.0012184
3706.51	-0.000776597
3716.16	0.000906254
3725.8	-8.14773e-06
3735.44	-0.00017364
3745.08	-0.00104785
3754.72	-0.000526539
3764.37	0.000514337
3774.01	0.00193727
3783.65	-1.64231e-05
3793.29	-0.00103308
3802.94	0.000713099
3812.58	0.000318878
3822.22	-0.000900966
3831.86	-0.000146257
3841.51	-0.00140107
3851.15	-6.95428e-05
3860.79	-0.000787696
3870.43	-0.00142226
3880.07	-0.000582802
3889.72	-0.000851051
3899.36	9.10895e-05
3909	0.000921792
3918.64	-0.00330811
3928.29	0.0015242
3937.93	0.00265784
3947.57	0.00172323
3957.21	-0.00101849
3966.86	0.000564093
3976.5	-0.00176307
3986.14	0.00201323
3995.78	0.00082092
