Measurement: Infrared, Infrared Data Processed
Mineral: Thomsenolite
Rruff sample: R050282
Ideal chemistry: NaCaAlF_6_H_2_O
Locality: Ivigtut, Greenland
Source: Marcus Origlieri
Description: Colorless prismatic rectangular single crystals associated with colorless ralstonite
Measured chemistry: Na_1.00_(Ca_0.96_Sr_0.04_)_Σ=1_Al_1.00_F_6.00_·H_2_O
x	intensity
399.193	0.140987
408.835	0.080634
418.477	0.0452991
428.12	0.0330671
437.762	0.0334065
447.404	0.0441573
457.047	0.0725771
466.689	0.0728469
476.331	0.0697045
485.974	0.0901979
495.616	0.127266
505.258	0.176424
514.901	0.215683
524.543	0.227785
534.185	0.231781
543.828	0.255957
553.47	0.255549
563.112	0.241105
572.755	0.217208
582.397	0.190166
592.039	0.161365
601.682	0.132098
611.324	0.11206
620.966	0.0963547
630.609	0.0848499
640.251	0.0716585
649.893	0.0596074
659.536	0.0511949
669.178	0.0450259
678.82	0.0442939
688.463	0.0500764
698.105	0.0571685
707.747	0.0583035
717.39	0.0533694
727.032	0.0469831
736.674	0.0401994
746.317	0.0320546
755.959	0.0234885
765.601	0.0177661
775.244	0.0140573
784.886	0.0114163
794.528	0.00968992
804.171	0.00870992
813.813	0.00767564
823.455	0.00667341
833.098	0.0065089
842.74	0.00597672
852.382	0.0059984
862.025	0.00524906
871.667	0.00517687
881.309	0.00510683
890.952	0.00544592
900.594	0.0052425
910.236	0.00567631
919.879	0.00595118
929.521	0.00633805
939.163	0.00611078
948.806	0.00668801
958.448	0.00655452
968.09	0.00611849
977.733	0.00611688
987.375	0.00568099
997.017	0.00568649
1006.66	0.00545338
1016.3	0.0049886
1025.94	0.0049715
1035.59	0.00457369
1045.23	0.00488852
1054.87	0.00465568
1064.51	0.00470137
1074.16	0.00459412
1083.8	0.0048947
1093.44	0.00473921
1103.08	0.00411564
1112.72	0.00455791
1122.37	0.00463863
1132.01	0.00487342
1141.65	0.00493976
1151.3	0.00518615
1160.94	0.00529318
1170.58	0.00529658
1180.22	0.0051102
1189.86	0.00460873
1199.51	0.00432433
1209.15	0.00395168
1218.79	0.0038072
1228.43	0.00346495
1238.08	0.00396562
1247.72	0.00396265
1257.36	0.00366498
1267	0.00404656
1276.64	0.00454604
1286.29	0.00428349
1295.93	0.0048433
1305.57	0.00483898
1315.21	0.00518739
1324.86	0.005034
1334.5	0.00522414
1344.14	0.00521511
1353.78	0.00517703
1363.43	0.00550985
1373.07	0.00495867
1382.71	0.00524153
1392.35	0.00530563
1401.99	0.00586399
1411.64	0.00603454
1421.28	0.00633211
1430.92	0.00640366
1440.57	0.00595187
1450.21	0.00598075
1459.85	0.00531996
1469.49	0.0050139
1479.13	0.00556443
1488.78	0.00564016
1498.42	0.00526443
1508.06	0.00516413
1517.7	0.00502813
1527.35	0.00531474
1536.99	0.00523619
1546.63	0.00555022
1556.27	0.00539523
1565.91	0.00539906
1575.56	0.00507836
1585.2	0.00559797
1594.84	0.00519222
1604.48	0.00643631
1614.13	0.00695044
1623.77	0.00843132
1633.41	0.0118475
1643.05	0.0167404
1652.7	0.0284573
1662.34	0.0490486
1671.98	0.0335556
1681.62	0.0134664
1691.27	0.00632413
1700.91	0.0042005
1710.55	0.00259764
1720.19	0.00218212
1729.84	0.00127545
1739.48	0.000629012
1749.12	0.00125949
1758.76	0.00293569
1768.4	0.00331844
1778.05	0.00330589
1787.69	0.00382748
1797.33	0.00340096
1806.97	0.0034616
1816.62	0.00356532
1826.26	0.00336988
1835.9	0.00414738
1845.54	0.00378661
1855.18	0.00447931
1864.83	0.00432851
1874.47	0.0038084
1884.11	0.00458268
1893.75	0.00449565
1903.4	0.00409005
1913.04	0.00435548
1922.68	0.00455843
1932.32	0.00321595
1941.97	0.00328574
1951.61	0.00364177
1961.25	0.00538389
1970.89	0.00529746
1980.54	0.00526336
1990.18	0.00752846
1999.82	0.00525935
2009.46	0.00634929
2019.11	0.00663878
2028.75	0.00592426
2038.39	0.00308628
2048.03	0.00665136
2057.67	0.00677019
2067.32	0.00796496
2076.96	0.00746237
2086.6	0.00454069
2096.24	0.00390211
2105.89	0.00715819
2115.53	0.0057588
2125.17	0.00485076
2134.81	0.00405134
2144.45	0.00546196
2154.1	0.00397705
2163.74	0.00956778
2173.38	0.00712405
2183.02	0.00713161
2192.67	0.00772941
2202.31	0.00873813
2211.95	0.00769883
2221.59	0.00801136
2231.24	0.00765916
2240.88	0.00590235
2250.52	0.00629144
2260.16	0.00682782
2269.8	0.00685309
2279.45	0.00743862
2289.09	0.00948653
2298.73	0.00723338
2308.38	0.00805394
2318.02	0.006759
2327.66	0.00480563
2337.3	0.00501605
2346.94	0.00481451
2356.59	0.00461951
2366.23	0.00415283
2375.87	0.00376672
2385.51	0.00428175
2395.16	0.00354754
2404.8	0.00644145
2414.44	0.00608596
2424.08	0.00739031
2433.72	0.00516374
2443.37	0.00716273
2453.01	0.00591638
2462.65	0.0055256
2472.29	0.00579634
2481.94	0.00536925
2491.58	0.00506941
2501.22	0.00666804
2510.86	0.00585373
2520.51	0.00600074
2530.15	0.00552436
2539.79	0.00525442
2549.43	0.00627279
2559.07	0.00628833
2568.72	0.00716402
2578.36	0.00720467
2588	0.00475206
2597.64	0.00626375
2607.29	0.00624174
2616.93	0.00685498
2626.57	0.0064001
2636.21	0.00749697
2645.86	0.00721214
2655.5	0.00595724
2665.14	0.00584378
2674.78	0.00565686
2684.43	0.00607113
2694.07	0.00493588
2703.71	0.00656979
2713.35	0.00589204
2722.99	0.00603475
2732.64	0.00584859
2742.28	0.00492548
2751.92	0.00747041
2761.56	0.00563082
2771.21	0.00662905
2780.85	0.00544879
2790.49	0.00612787
2800.13	0.00682088
2809.78	0.00732554
2819.42	0.00652651
2829.06	0.0069522
2838.7	0.00639362
2848.34	0.00656763
2857.99	0.00613333
2867.63	0.00539428
2877.27	0.00533168
2886.91	0.00637311
2896.56	0.00563434
2906.2	0.0041645
2915.84	0.00619909
2925.48	0.00407358
2935.13	0.00425384
2944.77	0.00663308
2954.41	0.00405515
2964.05	0.00593988
2973.7	0.00387741
2983.34	0.00671088
2992.98	0.0068889
3002.62	0.00783391
3012.26	0.00712309
3021.91	0.00623671
3031.55	0.00757269
3041.19	0.00795198
3050.83	0.00534991
3060.48	0.00932655
3070.12	0.0070666
3079.76	0.00755123
3089.4	0.00890539
3099.05	0.00950805
3108.69	0.00991103
3118.33	0.009549
3127.97	0.00991814
3137.61	0.00908319
3147.26	0.0102448
3156.9	0.0114447
3166.54	0.0123935
3176.18	0.0096027
3185.83	0.00994217
3195.47	0.00882324
3205.11	0.00973005
3214.75	0.0115124
3224.4	0.0104948
3234.04	0.0118275
3243.68	0.0122014
3253.32	0.0119968
3262.97	0.0129017
3272.61	0.0147488
3282.25	0.0136669
3291.89	0.0139011
3301.53	0.0148994
3311.18	0.016439
3320.82	0.0151627
3330.46	0.0138949
3340.1	0.0156887
3349.75	0.0176284
3359.39	0.0184865
3369.03	0.0200914
3378.67	0.0214941
3388.32	0.0211654
3397.96	0.027278
3407.6	0.0263769
3417.24	0.034293
3426.89	0.0435484
3436.53	0.0543297
3446.17	0.0727929
3455.81	0.092144
3465.45	0.0974443
3475.1	0.0743345
3484.74	0.0513612
3494.38	0.0506818
3504.02	0.0622546
3513.67	0.0963728
3523.31	0.135631
3532.95	0.117462
3542.59	0.0716434
3552.24	0.0436407
3561.88	0.0342306
3571.52	0.0281693
3581.16	0.02268
3590.8	0.0235516
3600.45	0.0154735
3610.09	0.0153791
3619.73	0.0117437
3629.37	0.0145836
3639.02	0.00696129
3648.66	0.00963128
3658.3	0.0135842
3667.94	0.00898256
3677.59	0.0106907
3687.23	0.00646817
3696.87	0.0084983
3706.51	0.0109313
3716.16	0.00654289
3725.8	0.0108906
3735.44	0.0134716
3745.08	0.0065927
3754.72	0.00942481
3764.37	0.0109271
3774.01	0.0119799
3783.65	0.00991434
3793.29	0.0112882
3802.94	0.0098665
3812.58	0.0108164
3822.22	0.0096099
3831.86	0.0130606
3841.51	0.0112227
3851.15	0.00872096
3860.79	0.0123666
3870.43	0.0145622
3880.07	0.00816651
3889.72	0.0105662
3899.36	0.0111881
3909	0.0137421
3918.64	0.0112369
3928.29	0.010876
3937.93	0.0139097
3947.57	0.010291
3957.21	0.0110569
3966.86	0.00989065
3976.5	0.0163964
3986.14	0.0153611
3995.78	0.0111796
