Measurement: Infrared, Infrared Data Processed
Mineral: Tiemannite
Rruff sample: R050550
Ideal chemistry: Hg^2+^Se^2-^
Locality: Queretaro, Mexico
Source: Dave Bunk Minerals
Description: Grey semi-metallic fragments
Measured chemistry: Hg_1.00_(Se_0.81_S_0.19_)
x	intensity
399.193	0.199711
408.835	0.212172
418.477	0.210884
428.12	0.207036
437.762	0.21199
447.404	0.216327
457.047	0.221791
466.689	0.227473
476.331	0.228122
485.974	0.233663
495.616	0.237521
505.258	0.242182
514.901	0.242275
524.543	0.247855
534.185	0.250016
543.828	0.253027
553.47	0.257588
563.112	0.262989
572.755	0.264371
582.397	0.267102
592.039	0.268864
601.682	0.269848
611.324	0.273691
620.966	0.276745
630.609	0.279148
640.251	0.282305
649.893	0.284179
659.536	0.286693
669.178	0.289773
678.82	0.290116
688.463	0.292244
698.105	0.29482
707.747	0.297517
717.39	0.296119
727.032	0.298433
736.674	0.301519
746.317	0.302947
755.959	0.305325
765.601	0.307152
775.244	0.308244
784.886	0.309883
794.528	0.310474
804.171	0.312592
813.813	0.313653
823.455	0.315119
833.098	0.316825
842.74	0.317612
852.382	0.318466
862.025	0.319034
871.667	0.317166
881.309	0.312209
890.952	0.31384
900.594	0.314733
910.236	0.315267
919.879	0.315088
929.521	0.315217
939.163	0.314883
948.806	0.314525
958.448	0.313638
968.09	0.312722
977.733	0.312918
987.375	0.31106
997.017	0.309889
1006.66	0.309588
1016.3	0.307822
1025.94	0.305134
1035.59	0.303863
1045.23	0.302966
1054.87	0.302003
1064.51	0.30015
1074.16	0.299589
1083.8	0.298016
1093.44	0.294943
1103.08	0.294169
1112.72	0.292169
1122.37	0.290205
1132.01	0.290114
1141.65	0.29041
1151.3	0.289012
1160.94	0.286614
1170.58	0.2843
1180.22	0.283723
1189.86	0.283387
1199.51	0.281982
1209.15	0.280972
1218.79	0.279614
1228.43	0.278321
1238.08	0.276644
1247.72	0.274685
1257.36	0.272921
1267	0.271314
1276.64	0.271115
1286.29	0.271338
1295.93	0.270562
1305.57	0.270921
1315.21	0.27187
1324.86	0.27236
1334.5	0.272744
1344.14	0.274477
1353.78	0.275428
1363.43	0.278091
1373.07	0.282677
1382.71	0.287692
1392.35	0.29456
1401.99	0.299424
1411.64	0.305241
1421.28	0.308456
1430.92	0.309412
1440.57	0.308881
1450.21	0.307457
1459.85	0.304534
1469.49	0.301837
1479.13	0.302373
1488.78	0.301702
1498.42	0.30095
1508.06	0.301453
1517.7	0.301137
1527.35	0.302719
1536.99	0.304653
1546.63	0.306971
1556.27	0.311108
1565.91	0.316446
1575.56	0.321844
1585.2	0.327379
1594.84	0.333752
1604.48	0.339071
1614.13	0.343904
1623.77	0.350689
1633.41	0.357715
1643.05	0.363486
1652.7	0.370274
1662.34	0.376784
1671.98	0.382302
1681.62	0.389055
1691.27	0.39575
1700.91	0.40271
1710.55	0.408566
1720.19	0.415358
1729.84	0.421474
1739.48	0.425467
1749.12	0.432234
1758.76	0.444408
1768.4	0.453385
1778.05	0.460824
1787.69	0.467261
1797.33	0.474292
1806.97	0.478849
1816.62	0.48637
1826.26	0.491247
1835.9	0.498771
1845.54	0.505427
1855.18	0.512802
1864.83	0.518162
1874.47	0.524135
1884.11	0.532892
1893.75	0.53821
1903.4	0.544427
1913.04	0.546706
1922.68	0.55315
1932.32	0.559021
1941.97	0.562624
1951.61	0.566101
1961.25	0.563643
1970.89	0.571851
1980.54	0.57701
1990.18	0.584731
1999.82	0.588228
2009.46	0.591254
2019.11	0.591426
2028.75	0.602265
2038.39	0.613286
2048.03	0.621598
2057.67	0.636042
2067.32	0.64513
2076.96	0.655981
2086.6	0.659397
2096.24	0.665814
2105.89	0.675036
2115.53	0.678056
2125.17	0.680504
2134.81	0.681619
2144.45	0.68114
2154.1	0.678479
2163.74	0.683094
2173.38	0.691381
2183.02	0.70067
2192.67	0.710005
2202.31	0.718379
2211.95	0.724533
2221.59	0.728227
2231.24	0.740981
2240.88	0.744536
2250.52	0.754188
2260.16	0.757981
2269.8	0.774458
2279.45	0.779604
2289.09	0.787421
2298.73	0.794988
2308.38	0.80338
2318.02	0.808388
2327.66	0.816207
2337.3	0.821955
2346.94	0.825638
2356.59	0.83082
2366.23	0.836209
2375.87	0.839924
2385.51	0.842677
2395.16	0.845852
2404.8	0.853022
2414.44	0.855209
2424.08	0.859548
2433.72	0.865832
2443.37	0.870785
2453.01	0.874179
2462.65	0.878678
2472.29	0.883369
2481.94	0.890953
2491.58	0.892712
2501.22	0.898451
2510.86	0.903135
2520.51	0.905622
2530.15	0.913138
2539.79	0.914791
2549.43	0.917754
2559.07	0.928957
2568.72	0.933745
2578.36	0.935957
2588	0.942955
2597.64	0.946489
2607.29	0.948582
2616.93	0.955314
2626.57	0.963277
2636.21	0.96871
2645.86	0.971917
2655.5	0.976793
2665.14	0.982212
2674.78	0.985184
2684.43	0.990605
2694.07	0.995299
2703.71	0.999939
2713.35	1.0057
2722.99	1.00975
2732.64	1.01051
2742.28	1.01442
2751.92	1.01972
2761.56	1.02378
2771.21	1.02784
2780.85	1.03326
2790.49	1.0361
2800.13	1.04035
2809.78	1.04669
2819.42	1.04844
2829.06	1.05332
2838.7	1.05711
2848.34	1.05726
2857.99	1.06304
2867.63	1.06641
2877.27	1.07329
2886.91	1.07529
2896.56	1.08159
2906.2	1.08194
2915.84	1.0842
2925.48	1.08507
2935.13	1.09006
2944.77	1.0959
2954.41	1.10024
2964.05	1.10315
2973.7	1.1072
2983.34	1.10798
2992.98	1.11326
3002.62	1.11764
3012.26	1.12366
3021.91	1.12846
3031.55	1.1278
3041.19	1.13668
3050.83	1.13536
3060.48	1.14046
3070.12	1.142
3079.76	1.15141
3089.4	1.15083
3099.05	1.15409
3108.69	1.1583
3118.33	1.16276
3127.97	1.16765
3137.61	1.1701
3147.26	1.17409
3156.9	1.1789
3166.54	1.17906
3176.18	1.18541
3185.83	1.19003
3195.47	1.19548
3205.11	1.19525
3214.75	1.20323
3224.4	1.2053
3234.04	1.20774
3243.68	1.2097
3253.32	1.21476
3262.97	1.21837
3272.61	1.22545
3282.25	1.22729
3291.89	1.23061
3301.53	1.23301
3311.18	1.23872
3320.82	1.245
3330.46	1.24731
3340.1	1.24733
3349.75	1.25255
3359.39	1.2508
3369.03	1.25295
3378.67	1.25411
3388.32	1.26086
3397.96	1.25658
3407.6	1.26915
3417.24	1.27017
3426.89	1.27476
3436.53	1.26924
3446.17	1.27822
3455.81	1.28022
3465.45	1.28107
3475.1	1.28147
3484.74	1.28444
3494.38	1.2924
3504.02	1.29261
3513.67	1.29018
3523.31	1.29331
3532.95	1.29878
3542.59	1.29664
3552.24	1.31276
3561.88	1.30984
3571.52	1.30538
3581.16	1.318
3590.8	1.31709
3600.45	1.3219
3610.09	1.3172
3619.73	1.32575
3629.37	1.33254
3639.02	1.32583
3648.66	1.33541
3658.3	1.33344
3667.94	1.34832
3677.59	1.34323
3687.23	1.35002
3696.87	1.34601
3706.51	1.36251
3716.16	1.36217
3725.8	1.36296
3735.44	1.37068
3745.08	1.36853
3754.72	1.37481
3764.37	1.38131
3774.01	1.38849
3783.65	1.38931
3793.29	1.39314
3802.94	1.39614
3812.58	1.38857
3822.22	1.39261
3831.86	1.41095
3841.51	1.41025
3851.15	1.41638
3860.79	1.41162
3870.43	1.41855
3880.07	1.41792
3889.72	1.42537
3899.36	1.43228
3909	1.43427
3918.64	1.43332
3928.29	1.44218
3937.93	1.43373
3947.57	1.44359
3957.21	1.44355
3966.86	1.45745
3976.5	1.4463
3986.14	1.44949
3995.78	1.46721
