Measurement: Infrared, Infrared Data Processed
Mineral: Tilleyite
Rruff sample: R050227
Ideal chemistry: Ca_5_Si_2_O_7_(CO_3_)_2_
Locality: Crestmore Quarry, Riverside County, California, USA
Source: Marcus Origlieri
Description: Aggregate of colorless subhedral crystals
x	intensity
372.194	0
381.836	0.0575094
391.479	0.0503912
401.121	0.0511693
410.763	0.0391137
420.406	0.0466193
430.048	0.0535287
439.69	0.0738748
449.333	0.101652
458.975	0.12923
468.617	0.134151
478.26	0.136136
487.902	0.137126
497.544	0.112788
507.187	0.0984218
516.829	0.0752927
526.471	0.0594003
536.114	0.0830224
545.756	0.0930344
555.398	0.080118
565.041	0.0383233
574.683	0.0206427
584.325	0.0159328
593.968	0.0146992
603.61	0.0140777
613.252	0.0152701
622.895	0.0171944
632.537	0.0209744
642.179	0.0312974
651.822	0.0347534
661.464	0.0267144
671.106	0.0183758
680.749	0.0163175
690.391	0.0164373
700.033	0.0254565
709.676	0.0221488
719.318	0.0193552
728.96	0.0155382
738.603	0.0162402
748.245	0.0171012
757.887	0.0184419
767.53	0.0205123
777.172	0.0231135
786.814	0.0266853
796.457	0.0318315
806.099	0.0394594
815.741	0.0548643
825.384	0.087694
835.026	0.152415
844.668	0.160434
854.311	0.0759692
863.953	0.157858
873.595	0.11369
883.238	0.0707652
892.88	0.0731957
902.522	0.121676
912.165	0.175728
921.807	0.250084
931.449	0.188334
941.092	0.194616
950.734	0.237967
960.376	0.20996
970.019	0.207539
979.661	0.179698
989.303	0.161378
998.946	0.146549
1008.59	0.113964
1018.23	0.115391
1027.87	0.115504
1037.52	0.0761352
1047.16	0.0454818
1056.8	0.0443487
1066.44	0.0482144
1076.08	0.0521694
1085.73	0.0555167
1095.37	0.0448485
1105.01	0.0226184
1114.65	0.0151465
1124.3	0.0127136
1133.94	0.0113458
1143.58	0.0104322
1153.22	0.0105622
1162.87	0.0107123
1172.51	0.0109177
1182.15	0.0106041
1191.79	0.0106775
1201.43	0.0107687
1211.08	0.0107751
1220.72	0.0103826
1230.36	0.00994421
1240	0.00990776
1249.65	0.0098453
1259.29	0.0102627
1268.93	0.0110451
1278.57	0.0124956
1288.22	0.0140444
1297.86	0.0156786
1307.5	0.0182514
1317.14	0.0218822
1326.79	0.0268277
1336.43	0.03404
1346.07	0.0464978
1355.71	0.067228
1365.35	0.106301
1375	0.16019
1384.64	0.268204
1394.28	0.326068
1403.92	0.237605
1413.57	0.189606
1423.21	0.207688
1432.85	0.154127
1442.49	0.137896
1452.13	0.134589
1461.78	0.130829
1471.42	0.125351
1481.06	0.122479
1490.7	0.12649
1500.35	0.10651
1509.99	0.107966
1519.63	0.116749
1529.27	0.137182
1538.92	0.138352
1548.56	0.114768
1558.2	0.077351
1567.84	0.0477523
1577.49	0.0344741
1587.13	0.0152782
1596.77	0.0102741
1606.41	0.00691523
1616.06	0.00491485
1625.7	0.00408763
1635.34	0.00332032
1644.98	0.0030511
1654.62	0.00237788
1664.27	0.00209187
1673.91	0.00164385
1683.55	0.00158584
1693.19	0.00116111
1702.84	0.00117309
1712.48	0.000978523
1722.12	0.000551868
1731.76	-4.46405e-05
1741.4	-0.000284579
1751.05	-0.000798332
1760.69	0.000260294
1770.33	0.000885311
1779.97	0.00210057
1789.62	0.00353729
1799.26	0.0047728
1808.9	0.00186521
1818.54	0.000523434
1828.19	-0.000130711
1837.83	-0.000255169
1847.47	-0.000234294
1857.11	0.000200748
1866.76	-0.000279837
1876.4	-0.0003182
1886.04	-0.0004788
1895.68	-0.000344826
1905.33	-0.000468805
1914.97	-0.000698552
1924.61	-0.00117165
1934.25	-0.001445
1943.89	-0.00130823
1953.54	-0.0021974
1963.18	-0.00160621
1972.82	-0.00259573
1982.46	-0.00136849
1992.11	-0.000929137
2001.75	-0.00152231
2011.39	-0.00200393
2021.03	-0.00165716
2030.67	0.000241786
2040.32	6.95672e-05
2049.96	0.00148788
2059.6	-0.000238
2069.24	0.0016003
2078.89	0.00222515
2088.53	0.00204638
2098.17	0.00240623
2107.81	0.00280433
2117.46	0.0026347
2127.1	0.00181981
2136.74	0.00100723
2146.38	-0.000243122
2156.03	0.00059205
2165.67	0.00382764
2175.31	0.00176941
2184.95	0.00450402
2194.59	0.00367595
2204.24	0.00184753
2213.88	0.00314664
2223.52	0.00317143
2233.16	0.00309217
2242.81	0.00267568
2252.45	0.00271233
2262.09	0.00307763
2271.73	0.00327712
2281.38	0.00365954
2291.02	0.00386909
2300.66	0.00335457
2310.3	0.00286743
2319.95	0.00398601
2329.59	0.00383241
2339.23	0.0039095
2348.87	0.00300374
2358.51	0.0039619
2368.16	0.00349605
2377.8	0.00303852
2387.44	0.00271378
2397.08	0.00239185
2406.73	0.00304309
2416.37	0.00274032
2426.01	0.00367253
2435.65	0.00361432
2445.3	0.00447904
2454.94	0.00418544
2464.58	0.00465313
2474.22	0.00535792
2483.86	0.0053061
2493.51	0.00619518
2503.15	0.00705086
2512.79	0.00700955
2522.43	0.00576349
2532.08	0.00542756
2541.72	0.00508351
2551.36	0.00440789
2561	0.00554354
2570.65	0.00671498
2580.29	0.00567594
2589.93	0.00585716
2599.57	0.00501268
2609.22	0.00578884
2618.86	0.00544424
2628.5	0.00489176
2638.14	0.00461135
2647.78	0.00454259
2657.43	0.00416114
2667.07	0.00299805
2676.71	0.00355668
2686.35	0.00332935
2696	0.00315507
2705.64	0.00332358
2715.28	0.00293959
2724.92	0.00306128
2734.57	0.00260083
2744.21	0.00253537
2753.85	0.00209201
2763.49	0.00146329
2773.14	0.00131615
2782.78	0.000976196
2792.42	0.00135707
2802.06	0.00204316
2811.7	0.00237172
2821.35	0.0028076
2830.99	0.00286063
2840.63	0.00211277
2850.27	-0.000371947
2859.92	0.000789227
2869.56	0.00264594
2879.2	0.00342256
2888.84	0.00349535
2898.49	0.00266578
2908.13	0.00186465
2917.77	-0.000756276
2927.41	-0.00108774
2937.05	0.00139122
2946.7	0.00259956
2956.34	0.00220197
2965.98	0.00319623
2975.62	0.00406513
2985.27	0.00390308
2994.91	0.00393927
3004.55	0.00424636
3014.19	0.00317089
3023.84	0.00373726
3033.48	0.00347584
3043.12	0.00484836
3052.76	0.00324036
3062.41	0.0034338
3072.05	0.0042136
3081.69	0.00384757
3091.33	0.00399275
3100.97	0.00504954
3110.62	0.00560911
3120.26	0.0061353
3129.9	0.00684554
3139.54	0.00674672
3149.19	0.00696197
3158.83	0.0075619
3168.47	0.00731276
3178.11	0.00840604
3187.76	0.00751092
3197.4	0.00845555
3207.04	0.00812658
3216.68	0.00787434
3226.32	0.00811297
3235.97	0.00814919
3245.61	0.00787281
3255.25	0.00860486
3264.89	0.0081758
3274.54	0.00832926
3284.18	0.00907256
3293.82	0.00806669
3303.46	0.00784518
3313.11	0.00796047
3322.75	0.0076623
3332.39	0.00818535
3342.03	0.00736571
3351.68	0.00845466
3361.32	0.00860154
3370.96	0.00820629
3380.6	0.0080259
3390.24	0.00865307
3399.89	0.00809887
3409.53	0.00842766
3419.17	0.00745989
3428.81	0.00702072
3438.46	0.00775205
3448.1	0.00758799
3457.74	0.00687438
3467.38	0.00851613
3477.03	0.00783577
3486.67	0.00731609
3496.31	0.00838587
3505.95	0.00684373
3515.59	0.00714411
3525.24	0.0072773
3534.88	0.00713305
3544.52	0.0069727
3554.16	0.00772458
3563.81	0.0083775
3573.45	0.0093103
3583.09	0.0105793
3592.73	0.014146
3602.38	0.00787939
3612.02	0.00673174
3621.66	0.00947502
3631.3	0.014886
3640.95	0.0110234
3650.59	0.00481857
3660.23	0.00394911
3669.87	0.00496734
3679.51	0.00270495
3689.16	0.00392383
3698.8	0.00366862
3708.44	0.0039537
3718.08	0.00434193
3727.73	0.00511478
3737.37	0.00405853
3747.01	0.00325235
3756.65	0.00430997
3766.3	0.00402527
3775.94	0.00371039
3785.58	0.00359642
3795.22	0.00452759
3804.86	0.00370167
3814.51	0.00326382
3824.15	0.00353261
3833.79	0.00319212
3843.43	0.00371749
3853.08	0.0027241
3862.72	0.00322852
3872.36	0.00351119
3882	0.00309566
3891.65	0.00269066
3901.29	0.00311855
3910.93	0.00361966
3920.57	0.0031475
3930.22	0.00366257
3939.86	0.00385328
3949.5	0.0050795
3959.14	0.0023256
3968.78	0.00338265
3978.43	0.00384357
3988.07	0.00356195
3997.71	0.00340837
