Measurement: Infrared, Infrared Data Processed
Mineral: Tincalconite
Rruff sample: R050660
Ideal chemistry: Na_2_B_4_O_5_(OH)_4_3H_2_O
Locality: Boron, Kern County, California, USA
Source: Marcus Origlieri
Description: Colorless pseudo-octahedral crystal
x	intensity
399.193	0.0618925
408.835	0.0639007
418.477	0.0691236
428.12	0.0701991
437.762	0.0856872
447.404	0.0908409
457.047	0.106075
466.689	0.100811
476.331	0.0722056
485.974	0.0647236
495.616	0.06248
505.258	0.0586857
514.901	0.053169
524.543	0.0542884
534.185	0.0468599
543.828	0.0435327
553.47	0.0416856
563.112	0.0403043
572.755	0.0449914
582.397	0.0432869
592.039	0.0443916
601.682	0.0486937
611.324	0.0484795
620.966	0.0425944
630.609	0.0507085
640.251	0.0565804
649.893	0.0601973
659.536	0.0649157
669.178	0.0737534
678.82	0.0783256
688.463	0.0865501
698.105	0.112191
707.747	0.132806
717.39	0.109322
727.032	0.0940529
736.674	0.0898757
746.317	0.0980411
755.959	0.114361
765.601	0.132849
775.244	0.138884
784.886	0.13865
794.528	0.153064
804.171	0.17966
813.813	0.229427
823.455	0.246662
833.098	0.163346
842.74	0.094633
852.382	0.0657706
862.025	0.0622393
871.667	0.0702663
881.309	0.0780911
890.952	0.0754481
900.594	0.0811283
910.236	0.0943496
919.879	0.11727
929.521	0.159877
939.163	0.213689
948.806	0.185494
958.448	0.0939495
968.09	0.105655
977.733	0.181518
987.375	0.264095
997.017	0.286786
1006.66	0.242489
1016.3	0.181882
1025.94	0.159938
1035.59	0.13779
1045.23	0.101491
1054.87	0.0744032
1064.51	0.0722106
1074.16	0.09534
1083.8	0.0918659
1093.44	0.0778826
1103.08	0.0707046
1112.72	0.065643
1122.37	0.113745
1132.01	0.160003
1141.65	0.0993868
1151.3	0.072431
1160.94	0.0666009
1170.58	0.0544779
1180.22	0.0424199
1189.86	0.0390545
1199.51	0.0447555
1209.15	0.0590074
1218.79	0.0781004
1228.43	0.083546
1238.08	0.103678
1247.72	0.133489
1257.36	0.145237
1267	0.13282
1276.64	0.123266
1286.29	0.0971225
1295.93	0.0712676
1305.57	0.0596834
1315.21	0.0711863
1324.86	0.121452
1334.5	0.186035
1344.14	0.18853
1353.78	0.154198
1363.43	0.125282
1373.07	0.12499
1382.71	0.129825
1392.35	0.127011
1401.99	0.125764
1411.64	0.131216
1421.28	0.14366
1430.92	0.144093
1440.57	0.127544
1450.21	0.11824
1459.85	0.113863
1469.49	0.104709
1479.13	0.0879523
1488.78	0.0674895
1498.42	0.0458867
1508.06	0.026308
1517.7	0.0154837
1527.35	0.0109925
1536.99	0.00967469
1546.63	0.00965129
1556.27	0.00911515
1565.91	0.00891776
1575.56	0.00836588
1585.2	0.00891556
1594.84	0.00901946
1604.48	0.00960778
1614.13	0.0104698
1623.77	0.0119568
1633.41	0.0137213
1643.05	0.0173801
1652.7	0.0229764
1662.34	0.0224131
1671.98	0.0203495
1681.62	0.019766
1691.27	0.0178131
1700.91	0.0142341
1710.55	0.0116256
1720.19	0.00993406
1729.84	0.00926127
1739.48	0.00771928
1749.12	0.00768368
1758.76	0.00741818
1768.4	0.00820951
1778.05	0.00785722
1787.69	0.00896613
1797.33	0.0082058
1806.97	0.00725784
1816.62	0.00691816
1826.26	0.00681716
1835.9	0.00692227
1845.54	0.00762383
1855.18	0.00590854
1864.83	0.00535182
1874.47	0.00534141
1884.11	0.00591063
1893.75	0.00497018
1903.4	0.00665822
1913.04	0.00730094
1922.68	0.00686551
1932.32	0.00735294
1941.97	0.00359391
1951.61	0.00675822
1961.25	0.0006919
1970.89	0.00369222
1980.54	0.00293146
1990.18	0.000333758
1999.82	0.00226402
2009.46	0.000976748
2019.11	0.00306402
2028.75	0.00359723
2038.39	0.00394121
2048.03	0.0066047
2057.67	0.00656392
2067.32	0.00679683
2076.96	0.0106429
2086.6	0.00769518
2096.24	0.00835444
2105.89	0.00770984
2115.53	0.0101672
2125.17	0.0116638
2134.81	0.00536277
2144.45	0.01015
2154.1	0.00867634
2163.74	0.00966462
2173.38	0.00687774
2183.02	0.0146924
2192.67	0.00922979
2202.31	0.0102998
2211.95	0.00959474
2221.59	0.00940411
2231.24	0.0128573
2240.88	0.010159
2250.52	0.0124058
2260.16	0.00898623
2269.8	0.00872579
2279.45	0.0146073
2289.09	0.0149781
2298.73	0.0133317
2308.38	0.0139551
2318.02	0.0145623
2327.66	0.0145807
2337.3	0.0142875
2346.94	0.014884
2356.59	0.0157466
2366.23	0.0152428
2375.87	0.0177659
2385.51	0.0182674
2395.16	0.0190161
2404.8	0.0200984
2414.44	0.0225577
2424.08	0.0248336
2433.72	0.0265056
2443.37	0.0249934
2453.01	0.0249288
2462.65	0.0237778
2472.29	0.0235986
2481.94	0.0225637
2491.58	0.0237565
2501.22	0.0221578
2510.86	0.0208379
2520.51	0.0227126
2530.15	0.0197737
2539.79	0.023035
2549.43	0.0222977
2559.07	0.0244462
2568.72	0.0248271
2578.36	0.0259578
2588	0.0289499
2597.64	0.0303973
2607.29	0.0316512
2616.93	0.0307398
2626.57	0.0315754
2636.21	0.0302087
2645.86	0.0296878
2655.5	0.0280328
2665.14	0.0264523
2674.78	0.0281079
2684.43	0.0273936
2694.07	0.0270337
2703.71	0.0287329
2713.35	0.0292961
2722.99	0.0306662
2732.64	0.0320771
2742.28	0.033381
2751.92	0.0345209
2761.56	0.037233
2771.21	0.0388789
2780.85	0.0399041
2790.49	0.0415657
2800.13	0.0418115
2809.78	0.0433813
2819.42	0.0433452
2829.06	0.0444717
2838.7	0.0446421
2848.34	0.0427039
2857.99	0.0448792
2867.63	0.0484555
2877.27	0.0504374
2886.91	0.0507614
2896.56	0.053541
2906.2	0.0549653
2915.84	0.0551919
2925.48	0.0573316
2935.13	0.062178
2944.77	0.0638067
2954.41	0.0693141
2964.05	0.0705729
2973.7	0.0724648
2983.34	0.0751382
2992.98	0.0778399
3002.62	0.0798003
3012.26	0.0796585
3021.91	0.0811906
3031.55	0.0816334
3041.19	0.0826248
3050.83	0.0818161
3060.48	0.0825677
3070.12	0.0809241
3079.76	0.0806525
3089.4	0.079029
3099.05	0.0773513
3108.69	0.0789235
3118.33	0.077755
3127.97	0.0799862
3137.61	0.0817507
3147.26	0.0812569
3156.9	0.0828661
3166.54	0.0859843
3176.18	0.0876332
3185.83	0.0913754
3195.47	0.0948328
3205.11	0.0994061
3214.75	0.102223
3224.4	0.10553
3234.04	0.108793
3243.68	0.110819
3253.32	0.112394
3262.97	0.114203
3272.61	0.118804
3282.25	0.121078
3291.89	0.123584
3301.53	0.135918
3311.18	0.144227
3320.82	0.158492
3330.46	0.170436
3340.1	0.180685
3349.75	0.177664
3359.39	0.170484
3369.03	0.149578
3378.67	0.131528
3388.32	0.116964
3397.96	0.0974225
3407.6	0.091272
3417.24	0.0875677
3426.89	0.0765911
3436.53	0.073541
3446.17	0.0707121
3455.81	0.0691476
3465.45	0.0680077
3475.1	0.0684301
3484.74	0.0713939
3494.38	0.0669526
3504.02	0.0649521
3513.67	0.0602241
3523.31	0.0544004
3532.95	0.0489279
3542.59	0.0403493
3552.24	0.0325049
3561.88	0.0342791
3571.52	0.0281435
3581.16	0.0260813
3590.8	0.0244417
3600.45	0.021926
3610.09	0.0198523
3619.73	0.0137755
3629.37	0.0183092
3639.02	0.0189253
3648.66	0.0124489
3658.3	0.0126701
3667.94	0.0118974
3677.59	0.00276006
3687.23	0.00586546
3696.87	0.00733373
3706.51	0.010666
3716.16	0.00809611
3725.8	0.0102513
3735.44	0.00923511
3745.08	0.0116801
3754.72	0.00620656
3764.37	0.0103655
3774.01	0.00574762
3783.65	0.00815863
3793.29	0.00838556
3802.94	0.00656249
3812.58	0.00562627
3822.22	0.00658736
3831.86	0.00702302
3841.51	0.0108399
3851.15	0.00687708
3860.79	0.00898409
3870.43	0.00774942
3880.07	0.00871691
3889.72	0.00799465
3899.36	0.00787353
3909	0.00925744
3918.64	0.00888482
3928.29	0.00623326
3937.93	0.00950314
3947.57	0.00923018
3957.21	0.00863715
3966.86	0.00807344
3976.5	0.00618058
3986.14	0.0110297
3995.78	0.00883139
