Measurement: Infrared, Infrared Data Processed
Mineral: Tincalconite
Rruff sample: R050660
Ideal chemistry: Na_2_B_4_O_5_(OH)_4_3H_2_O
Locality: Boron, Kern County, California, USA
Source: Marcus Origlieri
Description: Colorless pseudo-octahedral crystal
x	intensity
50.1401	0.00637827
52.0686	0.0136651
53.9971	0.0134692
55.9255	0.00860424
57.854	0.00734852
59.7825	0.0105517
61.7109	0.00958439
63.6394	0.00946889
65.5679	0.00937452
67.4963	0.00953083
69.4248	0.0108473
71.3533	0.00963739
73.2817	0.0106992
75.2102	0.0121346
77.1387	0.0127848
79.0671	0.0122746
80.9956	0.0118352
82.9241	0.012166
84.8525	0.0122599
86.781	0.0120454
88.7095	0.0121526
90.6379	0.0126029
92.5664	0.0123658
94.4948	0.0130147
96.4233	0.0133987
98.3518	0.0133204
100.28	0.014432
102.209	0.0152786
104.137	0.015438
106.066	0.0156345
107.994	0.0157557
109.923	0.0157955
111.851	0.0159153
113.779	0.0157088
115.708	0.0159854
117.636	0.0171327
119.565	0.0174237
121.493	0.0167109
123.422	0.0159545
125.35	0.0165622
127.279	0.0178124
129.207	0.0182254
131.136	0.0190936
133.064	0.019638
134.993	0.0200157
136.921	0.0208564
138.85	0.0220328
140.778	0.022434
142.707	0.0219147
144.635	0.0220108
146.563	0.0227778
148.492	0.0235025
150.42	0.0238268
152.349	0.024589
154.277	0.0254163
156.206	0.0256923
158.134	0.0257913
160.063	0.0258862
161.991	0.0256915
163.92	0.0253708
165.848	0.0253077
167.777	0.0250189
169.705	0.0246056
171.633	0.0243062
173.562	0.0240657
175.49	0.0243359
177.419	0.024567
179.347	0.0244422
181.276	0.0241876
183.204	0.0245199
185.133	0.0249325
187.061	0.0250759
188.99	0.0251
190.918	0.0252291
192.847	0.0257101
194.775	0.0259923
196.704	0.0258291
198.632	0.0255002
200.56	0.0253289
202.489	0.0252995
204.417	0.0250099
206.346	0.0246329
208.274	0.0243029
210.203	0.0240522
212.131	0.0238223
214.06	0.0230319
215.988	0.0223489
217.917	0.0217383
219.845	0.0211151
221.774	0.0203433
223.702	0.0199112
225.631	0.0196263
227.559	0.0193392
229.488	0.0185877
231.416	0.0180315
233.344	0.0176618
235.273	0.0175043
237.201	0.0173678
239.13	0.0168429
241.058	0.01673
242.987	0.0168002
244.915	0.016595
246.844	0.0166881
248.772	0.0167774
250.701	0.016817
252.629	0.0169622
254.558	0.0168477
256.486	0.0167067
258.414	0.0167385
260.343	0.0166193
262.271	0.0167462
264.2	0.0169745
266.128	0.0171733
268.057	0.0171828
269.985	0.0171066
271.914	0.0171202
273.842	0.0170405
275.771	0.0169625
277.699	0.01745
279.628	0.0178584
281.556	0.0178619
283.485	0.0178999
285.413	0.018114
287.341	0.0180516
289.27	0.017971
291.198	0.018231
293.127	0.0186542
295.055	0.0187846
296.984	0.0186988
298.912	0.0190269
300.841	0.0193467
302.769	0.019456
304.698	0.0197775
306.626	0.0199725
308.555	0.0202171
310.483	0.0203813
312.411	0.0208311
314.34	0.0211686
316.269	0.0214687
318.197	0.0220304
320.125	0.0226832
322.054	0.0232303
323.982	0.0236709
325.911	0.0242265
327.839	0.0247677
329.768	0.0250993
331.696	0.0256876
333.625	0.026332
335.553	0.0265176
337.482	0.0260377
339.41	0.0255755
341.339	0.0255592
343.267	0.0257304
345.195	0.0258501
347.124	0.0259132
349.052	0.0261134
350.981	0.026059
352.909	0.0257673
354.838	0.0256619
356.766	0.0256427
358.695	0.0258156
360.623	0.0260777
362.552	0.0260426
364.48	0.0259632
366.409	0.0256303
368.337	0.0254486
370.265	0.0255719
372.194	0.0257188
374.122	0.0259975
376.051	0.0263115
377.979	0.0263248
379.908	0.026086
381.836	0.0261673
383.765	0.0267069
385.693	0.026862
387.622	0.0269686
389.55	0.0269593
391.479	0.0270296
393.407	0.0275179
395.336	0.0279334
397.264	0.0282672
399.192	0.0286883
401.121	0.0293018
403.049	0.0297337
404.978	0.0300464
406.906	0.0303703
408.835	0.0306433
410.763	0.0308891
412.692	0.0312753
414.62	0.0316827
416.549	0.032012
418.477	0.0322012
420.406	0.0326333
422.334	0.0330498
424.262	0.0333746
426.191	0.033571
428.12	0.0338974
430.048	0.0342432
431.976	0.0345762
433.905	0.0350436
435.833	0.0355028
437.762	0.036007
439.69	0.0366709
441.619	0.0370595
443.547	0.0375119
445.476	0.0380774
447.404	0.038562
449.333	0.0388721
451.261	0.0395554
453.19	0.0403055
455.118	0.0410422
457.046	0.0418264
458.975	0.0424249
460.903	0.0432396
462.832	0.0434168
464.76	0.0422275
466.689	0.040699
468.617	0.0394032
470.546	0.0382574
472.474	0.0372595
474.403	0.0365436
476.331	0.0357496
478.26	0.0350707
480.188	0.0351357
482.116	0.0349829
484.045	0.0348833
485.974	0.0346788
487.902	0.0345871
489.83	0.0349295
491.759	0.0350822
493.687	0.0351302
495.616	0.0353427
497.544	0.0353512
499.473	0.0351089
501.401	0.0349671
503.33	0.0347846
505.258	0.0344557
507.187	0.0341474
509.115	0.033835
511.043	0.0332438
512.972	0.0330649
514.9	0.0335499
516.829	0.0336611
518.757	0.0334968
520.686	0.0342857
522.614	0.0350114
524.543	0.034769
526.471	0.0344506
528.4	0.0342641
530.328	0.0338976
532.257	0.0336971
534.185	0.0337556
536.114	0.0333076
538.042	0.033101
539.971	0.03288
541.899	0.0327691
543.827	0.0330433
545.756	0.0332204
547.684	0.0332498
549.613	0.0332715
551.541	0.0331356
553.47	0.0328394
555.398	0.0328493
557.327	0.032758
559.255	0.0329932
561.184	0.0333585
563.112	0.0337982
565.041	0.0340325
566.969	0.0337795
568.898	0.0338518
570.826	0.0345382
572.755	0.0352723
574.683	0.0356815
576.611	0.0357004
578.54	0.0356344
580.468	0.0354593
582.397	0.0353592
584.325	0.0350774
586.254	0.0356046
588.182	0.036187
590.111	0.0358632
592.039	0.0358255
593.968	0.0356917
595.896	0.0354759
597.824	0.0353544
599.753	0.0352052
601.682	0.0350079
603.61	0.0351746
605.538	0.035128
607.467	0.0352674
609.395	0.0352312
611.324	0.0345736
613.252	0.0343045
615.181	0.0341902
617.109	0.0340749
619.038	0.0343836
620.966	0.0352473
622.894	0.0360125
624.823	0.0372072
626.751	0.0388844
628.68	0.0406652
630.608	0.0419946
632.537	0.0427954
634.465	0.0432118
636.394	0.0436996
638.322	0.0441247
640.251	0.0446307
642.179	0.0450866
644.108	0.0455216
646.036	0.0460085
647.965	0.04617
649.893	0.0462224
651.822	0.0467942
653.75	0.0474246
655.678	0.0480597
657.607	0.0481546
659.535	0.0480399
661.464	0.0483396
663.392	0.0489797
665.321	0.0497503
667.249	0.0507252
669.178	0.0514576
671.106	0.0516498
673.035	0.0520562
674.963	0.0525164
676.892	0.0525335
678.82	0.0527965
680.749	0.0531739
682.677	0.0532024
684.606	0.0530447
686.534	0.0538348
688.462	0.0554204
690.391	0.0568608
692.319	0.0573477
694.248	0.0582405
696.176	0.0599677
698.105	0.0615942
700.033	0.0637663
