Measurement: Infrared, Infrared Data Processed
Mineral: Tincalconite
Rruff sample: R050660
Ideal chemistry: Na_2_B_4_O_5_(OH)_4_3H_2_O
Locality: Boron, Kern County, California, USA
Source: Marcus Origlieri
Description: Colorless pseudo-octahedral crystal
x	intensity
374.123	0.0385743
383.765	0.0403831
393.407	0.0371526
403.05	0.0413337
412.692	0.0451757
422.334	0.0491656
431.976	0.0504648
441.619	0.0579984
451.261	0.0655442
460.904	0.0768272
470.546	0.058138
480.188	0.0462562
489.83	0.0434259
499.473	0.044053
509.115	0.0375722
518.758	0.0356599
528.4	0.0347431
538.042	0.0315279
547.684	0.0292582
557.327	0.0278094
566.969	0.0288038
576.611	0.0308522
586.254	0.0304329
595.896	0.0307275
605.538	0.034706
615.181	0.0299805
624.823	0.0305616
634.466	0.035649
644.108	0.038835
653.75	0.0411796
663.393	0.0449246
673.035	0.0503352
682.677	0.0516026
692.319	0.0616373
701.962	0.0795507
711.604	0.0808226
721.246	0.0663717
730.889	0.0592816
740.531	0.059464
750.173	0.0670052
759.816	0.0771537
769.458	0.0879556
779.101	0.0852787
788.743	0.0907617
798.385	0.100598
808.028	0.12233
817.67	0.155921
827.312	0.143176
836.955	0.08768
846.597	0.0520131
856.239	0.0401111
865.881	0.0417602
875.524	0.0480556
885.166	0.0495784
894.808	0.0495112
904.451	0.0554259
914.093	0.0645404
923.736	0.0829911
933.378	0.11358
943.02	0.13912
952.663	0.0907935
962.305	0.0563509
971.947	0.0818357
981.59	0.133378
991.232	0.174863
1000.87	0.173659
1010.52	0.141205
1020.16	0.109721
1029.8	0.10201
1039.44	0.0812564
1049.09	0.0578342
1058.73	0.0433345
1068.37	0.0517715
1078.01	0.0629542
1087.65	0.0538321
1097.3	0.0484298
1106.94	0.0405856
1116.58	0.0474227
1126.22	0.0970745
1135.87	0.0858088
1145.51	0.0541618
1155.15	0.0429015
1164.79	0.0393626
1174.44	0.0298056
1184.08	0.0241212
1193.72	0.0245141
1203.36	0.0307334
1213.01	0.0423629
1222.65	0.0511972
1232.29	0.056375
1241.93	0.0731029
1251.58	0.0905017
1261.22	0.0871044
1270.86	0.0822562
1280.5	0.0724994
1290.14	0.0537816
1299.79	0.0395595
1309.43	0.0377489
1319.07	0.052956
1328.71	0.0952194
1338.36	0.119496
1348	0.110767
1357.64	0.0875766
1367.28	0.0758905
1376.92	0.0805251
1386.57	0.0801976
1396.21	0.0781257
1405.85	0.0788003
1415.49	0.0842634
1425.14	0.0915318
1434.78	0.0859795
1444.42	0.0768709
1454.06	0.0736145
1463.71	0.0709883
1473.35	0.0631583
1482.99	0.0505635
1492.63	0.0360685
1502.28	0.0212688
1511.92	0.0104699
1521.56	0.00596553
1531.2	0.0035577
1540.85	0.00356665
1550.49	0.00263214
1560.13	0.00306967
1569.77	0.00236397
1579.41	0.00180543
1589.06	0.00188609
1598.7	0.0020339
1608.34	0.00241938
1617.98	0.00363947
1627.63	0.00469695
1637.27	0.00663013
1646.91	0.00958947
1656.55	0.0118838
1666.19	0.0100861
1675.84	0.00961931
1685.48	0.00927869
1695.12	0.0074521
1704.77	0.00480021
1714.41	0.00331736
1724.05	0.0023298
1733.69	0.00273096
1743.33	0.0010098
1752.98	0.000613954
1762.62	0.000419563
1772.26	0.000851002
1781.9	0.000558381
1791.55	0.000742962
1801.19	0.000419966
1810.83	0.000615842
1820.47	0.000319336
1830.12	0.000160467
1839.76	0.000144119
1849.4	-7.30401e-05
1859.04	-5.64214e-05
1868.68	-0.000262362
1878.33	-0.001206
1887.97	-0.00134735
1897.61	-0.00218793
1907.25	-0.000949088
1916.9	-0.000684659
1926.54	-0.000951479
1936.18	-0.000477615
1945.82	-0.00194909
1955.46	-0.00206204
1965.11	-0.00465891
1974.75	-0.00481426
1984.39	-0.00352073
1994.04	-0.00502997
2003.68	-0.00583782
2013.32	-0.00544239
2022.96	-0.00434978
2032.6	-0.0037219
2042.25	-0.00261711
2051.89	-0.00130739
2061.53	-0.00186393
2071.17	-0.00183717
2080.82	-0.000995581
2090.46	-0.000628158
2100.1	-0.000579318
2109.74	0.000385323
2119.39	-1.34829e-05
2129.03	-0.000158709
2138.67	-0.000367847
2148.31	-0.00134203
2157.95	-0.0029322
2167.6	-0.00128028
2177.24	0.000599102
2186.88	7.60835e-06
2196.52	0.000130649
2206.17	-6.82722e-05
2215.81	0.00053662
2225.45	-0.000598569
2235.09	0.000708991
2244.74	7.72065e-05
2254.38	-0.00123649
2264.02	-0.00104547
2273.66	-0.00045319
2283.3	9.23035e-05
2292.95	0.000804136
2302.59	0.000829737
2312.23	0.000801314
2321.87	0.00126218
2331.52	0.00178874
2341.16	0.00210259
2350.8	0.00163984
2360.44	0.00305313
2370.09	0.00312318
2379.73	0.00268249
2389.37	0.0031289
2399.01	0.00452047
2408.66	0.00575274
2418.3	0.00633104
2427.94	0.00702663
2437.58	0.00692917
2447.22	0.00649716
2456.87	0.00581624
2466.51	0.00573907
2476.15	0.00484812
2485.79	0.00493682
2495.44	0.00389553
2505.08	0.00359025
2514.72	0.00291828
2524.36	0.0021611
2534.01	0.00296229
2543.65	0.00331554
2553.29	0.00349919
2562.93	0.00474492
2572.57	0.00569898
2582.22	0.00645628
2591.86	0.00761818
2601.5	0.00852624
2611.14	0.00827012
2620.79	0.00820479
2630.43	0.00787283
2640.07	0.00685303
2649.71	0.00600197
2659.36	0.00500776
2669	0.00497166
2678.64	0.00494933
2688.28	0.00502627
2697.93	0.00545448
2707.57	0.0059671
2717.21	0.00680178
2726.85	0.00756404
2736.49	0.00834632
2746.14	0.0087183
2755.78	0.0093369
2765.42	0.0107613
2775.06	0.0117898
2784.71	0.0121704
2794.35	0.0125244
2803.99	0.0129852
2813.63	0.0134952
2823.28	0.0136753
2832.92	0.0140625
2842.56	0.0148092
2852.2	0.0147999
2861.84	0.0161301
2871.49	0.0171106
2881.13	0.0182167
2890.77	0.0192982
2900.41	0.0204856
2910.06	0.021879
2919.7	0.0229793
2929.34	0.0238258
2938.98	0.0244287
2948.62	0.0260342
2958.27	0.0272472
2967.91	0.0287872
2977.55	0.0291045
2987.2	0.0308469
2996.84	0.0319954
3006.48	0.0325872
3016.12	0.0323668
3025.76	0.0333356
3035.41	0.0330983
3045.05	0.033788
3054.69	0.0332211
3064.33	0.0323248
3073.98	0.0323996
3083.62	0.0310785
3093.26	0.0315867
3102.9	0.03065
3112.55	0.0308436
3122.19	0.0308422
3131.83	0.0306362
3141.47	0.0317085
3151.11	0.0320022
3160.76	0.0325405
3170.4	0.0343897
3180.04	0.0360708
3189.68	0.0379334
3199.33	0.0391199
3208.97	0.0413147
3218.61	0.04257
3228.25	0.0448245
3237.9	0.0467787
3247.54	0.0471218
3257.18	0.0483466
3266.82	0.0506342
3276.47	0.0524724
3286.11	0.0542134
3295.75	0.0570276
3305.39	0.0621075
3315.03	0.0690293
3324.68	0.0764097
3334.32	0.0844264
3343.96	0.0883489
3353.6	0.0848724
3363.25	0.0753735
3372.89	0.0633761
3382.53	0.052131
3392.17	0.0426185
3401.82	0.036729
3411.46	0.0308772
3421.1	0.0271923
3430.74	0.0242458
3440.39	0.0217719
3450.03	0.0209519
3459.67	0.0189248
3469.31	0.0185959
3478.95	0.0176558
3488.6	0.0176604
3498.24	0.0167369
3507.88	0.0141237
3517.52	0.0115388
3527.17	0.00804686
3536.81	0.00276991
3546.45	5.72276e-05
3556.09	-0.0037418
3565.74	-0.00499405
3575.38	-0.00694413
3585.02	-0.00835647
3594.66	-0.00947357
3604.3	-0.0104924
3613.95	-0.0111604
3623.59	-0.0119197
3633.23	-0.0133829
3642.87	-0.0149583
3652.52	-0.0173256
3662.16	-0.0178387
3671.8	-0.0187543
3681.44	-0.0189113
3691.09	-0.0189475
3700.73	-0.018674
3710.37	-0.0180616
3720.01	-0.0184143
3729.66	-0.0180494
3739.3	-0.0181719
3748.94	-0.0168633
3758.58	-0.0173996
3768.22	-0.0174959
3777.87	-0.0193269
3787.51	-0.0192311
3797.15	-0.018708
3806.79	-0.0179087
3816.44	-0.0189436
3826.08	-0.0181297
3835.72	-0.0193727
3845.36	-0.0195351
3855.01	-0.0192088
3864.65	-0.019922
3874.29	-0.0198153
3883.93	-0.0192462
3893.57	-0.0200511
3903.22	-0.019268
3912.86	-0.0195348
3922.5	-0.0185158
3932.14	-0.0186455
3941.79	-0.0198758
3951.43	-0.0201997
3961.07	-0.0194083
3970.71	-0.0192874
3980.36	-0.0208081
3990	-0.019521
3999.64	-0.0199434
