Measurement: Infrared, Infrared Data Processed
Mineral: Tinzenite
Rruff sample: R050251
Ideal chemistry: Ca_2_Mn^2+^_4_Al_4_[B_2_Si_8_O_30_](OH)_2_
Locality: Tinzen, Sursass Valley, Switzerland
Source: Marcus Origlieri
Description: Aggregate of yellowish orange prismatic crystals associated with quartz
Measured chemistry: (Ca_2.96_Mn_2.84_Fe^2+^_0.14_Mg_0.06_)_Î£=6_Al_4.00_[B_2.00_Si_8.00_O_30_](OH)_2_; H_2_O assumed ideal from stoichiometry; B_2_O_3_ estimated by difference
x	intensity
374.123	2.24473
383.765	0.297073
393.407	0.283305
403.05	0.339085
412.692	0.337624
422.334	0.347728
431.976	0.314652
441.619	0.308158
451.261	0.316556
460.904	0.270372
470.546	0.223334
480.188	0.207506
489.83	0.162703
499.473	0.180051
509.115	0.216173
518.758	0.210643
528.4	0.218376
538.042	0.257865
547.684	0.260499
557.327	0.227007
566.969	0.194885
576.611	0.188027
586.254	0.167594
595.896	0.159862
605.538	0.14761
615.181	0.0971328
624.823	0.0802505
634.466	0.0775465
644.108	0.0629045
653.75	0.0571159
663.393	0.0848462
673.035	0.0988636
682.677	0.0688664
692.319	0.0623236
701.962	0.0565486
711.604	0.0607779
721.246	0.0646425
730.889	0.0720805
740.531	0.0823568
750.173	0.100486
759.816	0.121764
769.458	0.154983
779.101	0.190305
788.743	0.161553
798.385	0.178618
808.028	0.187394
817.67	0.210622
827.312	0.238754
836.955	0.26213
846.597	0.301142
856.239	0.317863
865.881	0.330183
875.524	0.330607
885.166	0.335625
894.808	0.310651
904.451	0.293588
914.093	0.302015
923.736	0.304819
933.378	0.281633
943.02	0.251542
952.663	0.224303
962.305	0.206118
971.947	0.199754
981.59	0.21203
991.232	0.224785
1000.87	0.238344
1010.52	0.236618
1020.16	0.224314
1029.8	0.236252
1039.44	0.242085
1049.09	0.234314
1058.73	0.236838
1068.37	0.22306
1078.01	0.188607
1087.65	0.150691
1097.3	0.130096
1106.94	0.104656
1116.58	0.0847938
1126.22	0.0685584
1135.87	0.057747
1145.51	0.0454507
1155.15	0.0355156
1164.79	0.0346879
1174.44	0.0300126
1184.08	0.024412
1193.72	0.0220706
1203.36	0.0194411
1213.01	0.0124181
1222.65	0.0117661
1232.29	0.00971035
1241.93	0.0103785
1251.58	0.00784048
1261.22	0.00810239
1270.86	0.00904698
1280.5	0.00742575
1290.14	0.0079912
1299.79	0.0068188
1309.43	0.00672282
1319.07	0.00614758
1328.71	0.00582573
1338.36	0.00667173
1348	0.00648333
1357.64	0.00681806
1367.28	0.00790945
1376.92	0.00938567
1386.57	0.00750103
1396.21	0.00797356
1405.85	0.0070312
1415.49	0.00947814
1425.14	0.00800533
1434.78	0.00737351
1444.42	0.00815889
1454.06	0.00697217
1463.71	0.008292
1473.35	0.00895233
1482.99	0.00762297
1492.63	0.00671321
1502.28	0.00798644
1511.92	0.00697961
1521.56	0.00613466
1531.2	0.00861973
1540.85	0.00955741
1550.49	0.00968309
1560.13	0.00978207
1569.77	0.0109554
1579.41	0.0126572
1589.06	0.0108634
1598.7	0.00975277
1608.34	0.0126174
1617.98	0.0100079
1627.63	0.00990714
1637.27	0.011491
1646.91	0.0120929
1656.55	0.00936514
1666.19	0.00925484
1675.84	0.00885719
1685.48	0.0112504
1695.12	0.00971714
1704.77	0.0113718
1714.41	0.00956923
1724.05	0.00987689
1733.69	0.0117217
1743.33	0.010643
1752.98	0.00652817
1762.62	0.00779366
1772.26	0.00924271
1781.9	0.00947856
1791.55	0.00860029
1801.19	0.010294
1810.83	0.00954181
1820.47	0.0104754
1830.12	0.0104942
1839.76	0.00940466
1849.4	0.00607486
1859.04	0.0124952
1868.68	0.0101562
1878.33	0.0129624
1887.97	0.00717407
1897.61	0.00889708
1907.25	0.0117465
1916.9	0.0104584
1926.54	0.0092094
1936.18	0.010211
1945.82	0.007799
1955.46	0.00925289
1965.11	0.0116864
1974.75	0.0112842
1984.39	0.0162266
1994.04	-0.00158114
2003.68	0.00540449
2013.32	0.0045864
2022.96	0.00508839
2032.6	0.0226364
2042.25	0.00904716
2051.89	0.00794537
2061.53	0.0172885
2071.17	0.00468771
2080.82	0.0125809
2090.46	0.0154191
2100.1	0.00853395
2109.74	0.0118551
2119.39	0.00534816
2129.03	0.00825781
2138.67	-0.000262155
2148.31	0.00285407
2157.95	0.00874537
2167.6	0.0109029
2177.24	0.0161669
2186.88	0.00923422
2196.52	0.00896985
2206.17	0.00790693
2215.81	0.0109571
2225.45	0.0105573
2235.09	0.0117049
2244.74	0.0150583
2254.38	0.0146906
2264.02	0.012566
2273.66	0.0124383
2283.3	0.0172564
2292.95	0.0149351
2302.59	0.0187118
2312.23	0.0156827
2321.87	0.0192092
2331.52	0.0159241
2341.16	0.0141671
2350.8	0.0167412
2360.44	0.0149831
2370.09	0.0142799
2379.73	0.0108488
2389.37	0.0122148
2399.01	0.0116204
2408.66	0.014405
2418.3	0.0121687
2427.94	0.0131566
2437.58	0.0157201
2447.22	0.0237351
2456.87	0.0186805
2466.51	0.0150091
2476.15	0.0180139
2485.79	0.0207353
2495.44	0.0166595
2505.08	0.0178766
2514.72	0.0211492
2524.36	0.0240067
2534.01	0.0191308
2543.65	0.0161558
2553.29	0.0199982
2562.93	0.0238621
2572.57	0.0151555
2582.22	0.0197556
2591.86	0.0202923
2601.5	0.0251005
2611.14	0.0196823
2620.79	0.0236046
2630.43	0.0207607
2640.07	0.022776
2649.71	0.0243686
2659.36	0.0209307
2669	0.0175826
2678.64	0.018842
2688.28	0.0219425
2697.93	0.0191088
2707.57	0.0193129
2717.21	0.0197563
2726.85	0.0242183
2736.49	0.0221032
2746.14	0.0200313
2755.78	0.0209622
2765.42	0.0211566
2775.06	0.0239889
2784.71	0.0194414
2794.35	0.024508
2803.99	0.0249161
2813.63	0.0239258
2823.28	0.0251074
2832.92	0.0207798
2842.56	0.0290017
2852.2	0.0258127
2861.84	0.0242301
2871.49	0.0251224
2881.13	0.0259068
2890.77	0.0243812
2900.41	0.0269865
2910.06	0.0224954
2919.7	0.03024
2929.34	0.0280492
2938.98	0.0255761
2948.62	0.0325694
2958.27	0.0296982
2967.91	0.0288307
2977.55	0.0264653
2987.2	0.0273254
2996.84	0.0231836
3006.48	0.0275991
3016.12	0.0275515
3025.76	0.0263096
3035.41	0.0316134
3045.05	0.0226952
3054.69	0.0243204
3064.33	0.0301576
3073.98	0.0250603
3083.62	0.0269669
3093.26	0.0300244
3102.9	0.0301861
3112.55	0.0321163
3122.19	0.0264471
3131.83	0.0300892
3141.47	0.0293868
3151.11	0.0298767
3160.76	0.0301943
3170.4	0.0321395
3180.04	0.0328483
3189.68	0.0308276
3199.33	0.0287777
3208.97	0.0335063
3218.61	0.0257961
3228.25	0.031643
3237.9	0.0356201
3247.54	0.0368317
3257.18	0.0373804
3266.82	0.0370641
3276.47	0.0353752
3286.11	0.0339969
3295.75	0.0463814
3305.39	0.0403244
3315.03	0.0454978
3324.68	0.0476943
3334.32	0.04842
3343.96	0.0506307
3353.6	0.0490158
3363.25	0.0553304
3372.89	0.0494954
3382.53	0.0470433
3392.17	0.0489787
3401.82	0.0437554
3411.46	0.0445034
3421.1	0.0376413
3430.74	0.0349025
3440.39	0.0333408
3450.03	0.031066
3459.67	0.0476867
3469.31	0.0389875
3478.95	0.0291369
3488.6	0.039869
3498.24	0.0327483
3507.88	0.0363743
3517.52	0.027116
3527.17	0.0309482
3536.81	0.027342
3546.45	0.0225665
3556.09	0.0220996
3565.74	0.0247698
3575.38	0.029063
3585.02	0.0302003
3594.66	0.0253036
3604.3	0.0314639
3613.95	0.023564
3623.59	0.0289155
3633.23	0.033061
3642.87	0.0299173
3652.52	0.0325786
3662.16	0.0270767
3671.8	0.0274217
3681.44	0.0310836
3691.09	0.037054
3700.73	0.0157885
3710.37	0.0300774
3720.01	0.0216677
3729.66	0.0266339
3739.3	0.0275648
3748.94	0.0222898
3758.58	0.0241419
3768.22	0.0332219
3777.87	0.0291044
3787.51	0.0205558
3797.15	0.024741
3806.79	0.0296306
3816.44	0.0194761
3826.08	0.0263008
3835.72	0.026166
3845.36	0.024427
3855.01	0.0293325
3864.65	0.0300957
3874.29	0.0180923
3883.93	0.0173532
3893.57	0.0347168
3903.22	0.0275389
3912.86	0.0311755
3922.5	0.0287394
3932.14	0.03401
3941.79	0.0278543
3951.43	0.0359715
3961.07	0.0324163
3970.71	0.0283245
3980.36	0.0271858
3990	0.0292342
3999.64	0.0251227
