Measurement: Infrared, Infrared Data Processed
Mineral: Titanite
Rruff sample: R050114
Ideal chemistry: CaTi^4+^SiO_5_
Locality: Isthak Valley Iskardu, Northern Areas Gilgit, Pakistan
Source: Syed Shah
Description: Yellowish-brown fragment
Measured chemistry: (Ca_0.99_Na_0.01_)(Ti_0.96_Al_0.03_Fe^3+^_0.01_)Si_1.00_O_4_(O_0.95_F_0.05_)
x	intensity
50.1401	0.0199352
52.0686	0.0204795
53.9971	0.0212337
55.9255	0.0220529
57.854	0.0217397
59.7825	0.0292036
61.7109	0.0268344
63.6394	0.0285865
65.5679	0.0249958
67.4963	0.0254783
69.4248	0.0284911
71.3533	0.0355186
73.2817	0.0350603
75.2102	0.0328353
77.1387	0.0318059
79.0671	0.0337179
80.9956	0.0334389
82.9241	0.0343955
84.8525	0.0336492
86.781	0.0344381
88.7095	0.0350027
90.6379	0.0363952
92.5664	0.0365703
94.4948	0.0376404
96.4233	0.0371748
98.3518	0.0380237
100.28	0.0381177
102.209	0.0384857
104.137	0.03905
106.066	0.04005
107.994	0.0402229
109.923	0.0417563
111.851	0.0419188
113.779	0.0419642
115.708	0.0421541
117.636	0.0432394
119.565	0.0434391
121.493	0.0449734
123.422	0.0450831
125.35	0.0464121
127.279	0.0476476
129.207	0.0480988
131.136	0.0480813
133.064	0.0498764
134.993	0.0505904
136.921	0.0513116
138.85	0.0512789
140.778	0.0520988
142.707	0.052313
144.635	0.0531906
146.563	0.0536249
148.492	0.0551491
150.42	0.0556307
152.349	0.0560604
154.277	0.0564107
156.206	0.0569451
158.134	0.0569735
160.063	0.0578521
161.991	0.0585038
163.92	0.0592757
165.848	0.059277
167.777	0.0599724
169.705	0.060461
171.633	0.0607833
173.562	0.060806
175.49	0.0616514
177.419	0.0619195
179.347	0.0624219
181.276	0.0624302
183.204	0.0630767
185.133	0.0636418
187.061	0.0645462
188.99	0.0648962
190.918	0.0652226
192.847	0.0656114
194.775	0.0661447
196.704	0.0660724
198.632	0.0668955
200.56	0.0678563
202.489	0.0687748
204.417	0.0691997
206.346	0.0697101
208.274	0.0697888
210.203	0.070565
212.131	0.0713291
214.06	0.072499
215.988	0.0725301
217.917	0.0727593
219.845	0.0734036
221.774	0.0745804
223.702	0.0747982
225.631	0.0755318
227.559	0.0761589
229.488	0.0762055
231.416	0.0761818
233.344	0.0763731
235.273	0.0765907
237.201	0.0771618
239.13	0.0768464
241.058	0.0762963
242.987	0.0752028
244.915	0.0745404
246.844	0.0742576
248.772	0.0751721
250.701	0.0763887
252.629	0.0778388
254.558	0.0786784
256.486	0.0794722
258.414	0.0798975
260.343	0.0806414
262.271	0.0815505
264.2	0.0826006
266.128	0.0834272
268.057	0.0843992
269.985	0.0849482
271.914	0.085546
273.842	0.0862366
275.771	0.0868093
277.699	0.087485
279.628	0.0879039
281.556	0.0875747
283.485	0.0874972
285.413	0.0870753
287.341	0.08673
289.27	0.0862919
291.198	0.0860881
293.127	0.0859473
295.055	0.0867866
296.984	0.0880478
298.912	0.0896438
300.841	0.0907207
302.769	0.0922096
304.698	0.0930449
306.626	0.0936132
308.555	0.0944196
310.483	0.0955151
312.411	0.0960811
314.34	0.0968723
316.269	0.0974573
318.197	0.0978651
320.125	0.0981254
322.054	0.0986064
323.982	0.0990231
325.911	0.0997881
327.839	0.100046
329.768	0.0999643
331.696	0.0999136
333.625	0.100434
335.553	0.100603
337.482	0.100699
339.41	0.100861
341.339	0.101058
343.267	0.100547
345.195	0.100115
347.124	0.0997232
349.052	0.0993063
350.981	0.0983794
352.909	0.0973588
354.838	0.0961855
356.766	0.0955752
358.695	0.095255
360.623	0.0951465
362.552	0.0950559
364.48	0.0950881
366.409	0.0950476
368.337	0.0952352
370.265	0.0953724
372.194	0.0958408
374.122	0.0961845
376.051	0.096192
377.979	0.095852
379.908	0.0956612
381.836	0.0951697
383.765	0.0942797
385.693	0.0934409
387.622	0.0931895
389.55	0.0929169
391.479	0.0932823
393.407	0.0940338
395.336	0.0953309
397.264	0.0967998
399.192	0.0985796
401.121	0.0999228
403.049	0.101273
404.978	0.102423
406.906	0.103524
408.835	0.104345
410.763	0.10552
412.692	0.106417
414.62	0.107171
416.549	0.108069
418.477	0.108984
420.406	0.10926
422.334	0.109525
424.262	0.109785
426.191	0.110215
428.12	0.110278
430.048	0.109906
431.976	0.109089
433.905	0.108381
435.833	0.107498
437.762	0.106665
439.69	0.105451
441.619	0.104213
443.547	0.102592
445.476	0.100997
447.404	0.0997794
449.333	0.0989596
451.261	0.0977529
453.19	0.0960053
455.118	0.0945615
457.046	0.0938841
458.975	0.0931017
460.903	0.0930291
462.832	0.0934823
464.76	0.0949124
466.689	0.095855
468.617	0.095725
470.546	0.0952411
472.474	0.0945542
474.403	0.0933868
476.331	0.0923633
478.26	0.0910311
480.188	0.0896344
482.116	0.0883204
484.045	0.0873945
485.974	0.0864809
487.902	0.0858373
489.83	0.0852335
491.759	0.0846308
493.687	0.083791
495.616	0.0828815
497.544	0.0820863
499.473	0.0810724
501.401	0.0793514
503.33	0.0775443
505.258	0.0759353
507.187	0.0740306
509.115	0.0718384
511.043	0.0697615
512.972	0.0680106
514.9	0.0667317
516.829	0.0658806
518.757	0.0658527
520.686	0.0659519
522.614	0.0662943
524.543	0.0670297
526.471	0.0683023
528.4	0.0695353
530.328	0.0706354
532.257	0.0715739
534.185	0.0724742
536.114	0.0733926
538.042	0.0745488
539.971	0.0754771
541.899	0.0764228
543.827	0.0780175
545.756	0.0801885
547.684	0.0824647
549.613	0.0851943
551.541	0.0879493
553.47	0.0905821
555.398	0.093347
557.327	0.0961805
559.255	0.0977465
561.184	0.0984384
563.112	0.0981904
565.041	0.0968549
566.969	0.0947343
568.898	0.0921214
570.826	0.089329
572.755	0.0868768
574.683	0.0850069
576.611	0.0837455
578.54	0.0830285
580.468	0.0831606
582.397	0.0833344
584.325	0.083095
586.254	0.0825363
588.182	0.082062
590.111	0.0815643
592.039	0.0810073
593.968	0.0805274
595.896	0.0805897
597.824	0.0808299
599.753	0.081106
601.682	0.0811515
603.61	0.0816125
605.538	0.0824907
607.467	0.0834435
609.395	0.0840526
611.324	0.084811
613.252	0.0855571
615.181	0.0861866
617.109	0.0875134
619.038	0.0885036
620.966	0.0889142
622.894	0.0901322
624.823	0.0910265
626.751	0.0917265
628.68	0.0925033
630.608	0.0938686
632.537	0.0948597
634.465	0.0953646
636.394	0.0960408
638.322	0.096829
640.251	0.0977422
642.179	0.0985079
644.108	0.0991771
646.036	0.10022
647.965	0.100916
649.893	0.101497
651.822	0.102286
653.75	0.102961
655.678	0.103825
657.607	0.104399
659.535	0.104725
661.464	0.105473
663.392	0.106193
665.321	0.106708
667.249	0.107291
669.178	0.107702
671.106	0.107708
673.035	0.108294
674.963	0.109335
676.892	0.109983
678.82	0.110451
680.749	0.111075
682.677	0.111431
684.606	0.111672
686.534	0.111639
688.462	0.112172
690.391	0.112324
692.319	0.112308
694.248	0.112686
696.176	0.113303
698.105	0.114023
700.033	0.114638
