Measurement: Infrared, Infrared Data Processed
Mineral: Titanite
Rruff sample: R050114
Ideal chemistry: CaTi^4+^SiO_5_
Locality: Isthak Valley Iskardu, Northern Areas Gilgit, Pakistan
Source: Syed Shah
Description: Yellowish-brown fragment
Measured chemistry: (Ca_0.99_Na_0.01_)(Ti_0.96_Al_0.03_Fe^3+^_0.01_)Si_1.00_O_4_(O_0.95_F_0.05_)
x	intensity
374.123	0.234404
383.765	0.239359
393.407	0.217082
403.05	0.245582
412.692	0.254922
422.334	0.258799
431.976	0.230443
441.619	0.206662
451.261	0.183324
460.904	0.174906
470.546	0.173065
480.188	0.155899
489.83	0.142292
499.473	0.129941
509.115	0.107102
518.758	0.095196
528.4	0.104645
538.042	0.119945
547.684	0.143511
557.327	0.179168
566.969	0.1649
576.611	0.136875
586.254	0.132794
595.896	0.129311
605.538	0.133895
615.181	0.142273
624.823	0.147994
634.466	0.153298
644.108	0.159722
653.75	0.164275
663.393	0.167968
673.035	0.171542
682.677	0.173929
692.319	0.174887
701.962	0.174894
711.604	0.17465
721.246	0.17193
730.889	0.168997
740.531	0.167725
750.173	0.166083
759.816	0.162641
769.458	0.165312
779.101	0.176771
788.743	0.196031
798.385	0.219285
808.028	0.244677
817.67	0.279842
827.312	0.321252
836.955	0.345534
846.597	0.356346
856.239	0.355885
865.881	0.345258
875.524	0.312988
885.166	0.282578
894.808	0.272694
904.451	0.242355
914.093	0.212018
923.736	0.187577
933.378	0.15832
943.02	0.136779
952.663	0.11739
962.305	0.0959421
971.947	0.0766992
981.59	0.0586857
991.232	0.0423142
1000.87	0.0302155
1010.52	0.021473
1020.16	0.0151147
1029.8	0.0116962
1039.44	0.0101167
1049.09	0.00926618
1058.73	0.00805772
1068.37	0.00732239
1078.01	0.00670145
1087.65	0.00598605
1097.3	0.00502227
1106.94	0.00473215
1116.58	0.00431981
1126.22	0.00401864
1135.87	0.00367843
1145.51	0.00344244
1155.15	0.00331462
1164.79	0.00319138
1174.44	0.00319782
1184.08	0.00287227
1193.72	0.00305077
1203.36	0.00304966
1213.01	0.00342245
1222.65	0.00349051
1232.29	0.00374973
1241.93	0.00370068
1251.58	0.00396508
1261.22	0.00400224
1270.86	0.00406105
1280.5	0.00431206
1290.14	0.00438955
1299.79	0.00461486
1309.43	0.00502265
1319.07	0.00539295
1328.71	0.00589137
1338.36	0.00612245
1348	0.00652262
1357.64	0.00709741
1367.28	0.0074168
1376.92	0.00790119
1386.57	0.00831225
1396.21	0.00901154
1405.85	0.00932758
1415.49	0.0100593
1425.14	0.0103794
1434.78	0.0107338
1444.42	0.010932
1454.06	0.0111281
1463.71	0.0114454
1473.35	0.0113621
1482.99	0.0113587
1492.63	0.0115729
1502.28	0.0115288
1511.92	0.0119645
1521.56	0.0126889
1531.2	0.0126786
1540.85	0.01403
1550.49	0.0140939
1560.13	0.0152125
1569.77	0.0149095
1579.41	0.0154569
1589.06	0.0154491
1598.7	0.0157019
1608.34	0.0159293
1617.98	0.0163199
1627.63	0.0163145
1637.27	0.0166592
1646.91	0.0171639
1656.55	0.0173047
1666.19	0.0175231
1675.84	0.0179607
1685.48	0.0186278
1695.12	0.0191728
1704.77	0.0191885
1714.41	0.0197987
1724.05	0.0201408
1733.69	0.0211801
1743.33	0.020142
1752.98	0.020111
1762.62	0.0205031
1772.26	0.0208054
1781.9	0.020784
1791.55	0.0213152
1801.19	0.0215453
1810.83	0.0214193
1820.47	0.0222636
1830.12	0.0225361
1839.76	0.0232184
1849.4	0.0229726
1859.04	0.0236927
1868.68	0.0242989
1878.33	0.0241928
1887.97	0.0247314
1897.61	0.0247189
1907.25	0.0252268
1916.9	0.0259581
1926.54	0.026701
1936.18	0.0263205
1945.82	0.0274065
1955.46	0.0282212
1965.11	0.028749
1974.75	0.0299716
1984.39	0.031892
1994.04	0.0303324
2003.68	0.0307505
2013.32	0.0340579
2022.96	0.0330485
2032.6	0.0337111
2042.25	0.0337194
2051.89	0.0333212
2061.53	0.0334724
2071.17	0.0323786
2080.82	0.0344048
2090.46	0.0333994
2100.1	0.0339093
2109.74	0.0338122
2119.39	0.0339433
2129.03	0.0328044
2138.67	0.0339205
2148.31	0.03522
2157.95	0.0376814
2167.6	0.0390647
2177.24	0.038421
2186.88	0.0397123
2196.52	0.0391276
2206.17	0.0397563
2215.81	0.0408237
2225.45	0.0395249
2235.09	0.040565
2244.74	0.0396947
2254.38	0.0404838
2264.02	0.0407462
2273.66	0.0408635
2283.3	0.0411349
2292.95	0.0415365
2302.59	0.040551
2312.23	0.0416998
2321.87	0.0429225
2331.52	0.0424588
2341.16	0.0426881
2350.8	0.0421012
2360.44	0.0438252
2370.09	0.04367
2379.73	0.0433576
2389.37	0.0429351
2399.01	0.0440992
2408.66	0.0447697
2418.3	0.0446707
2427.94	0.0447616
2437.58	0.0450119
2447.22	0.0454338
2456.87	0.046374
2466.51	0.0459246
2476.15	0.04617
2485.79	0.0477935
2495.44	0.047914
2505.08	0.0468402
2514.72	0.0482083
2524.36	0.0477183
2534.01	0.0487749
2543.65	0.0482428
2553.29	0.049101
2562.93	0.0491927
2572.57	0.0495966
2582.22	0.0494315
2591.86	0.0495004
2601.5	0.0506446
2611.14	0.0502509
2620.79	0.0506421
2630.43	0.0514078
2640.07	0.0512385
2649.71	0.0513599
2659.36	0.0516172
2669	0.0518559
2678.64	0.0519947
2688.28	0.0522608
2697.93	0.0527721
2707.57	0.0526445
2717.21	0.0534468
2726.85	0.0542214
2736.49	0.0541544
2746.14	0.0543909
2755.78	0.0551227
2765.42	0.0553655
2775.06	0.0556404
2784.71	0.0560287
2794.35	0.0569113
2803.99	0.0569972
2813.63	0.0574577
2823.28	0.0579431
2832.92	0.0581203
2842.56	0.0590454
2852.2	0.0593099
2861.84	0.0599057
2871.49	0.059909
2881.13	0.0597587
2890.77	0.0604152
2900.41	0.0608749
2910.06	0.0617372
2919.7	0.0625537
2929.34	0.0619871
2938.98	0.0619332
2948.62	0.0613426
2958.27	0.0627412
2967.91	0.0624957
2977.55	0.0620621
2987.2	0.0616214
2996.84	0.0626953
3006.48	0.0621703
3016.12	0.0636932
3025.76	0.0640638
3035.41	0.0639142
3045.05	0.0641861
3054.69	0.0651934
3064.33	0.0649819
3073.98	0.0651036
3083.62	0.0657674
3093.26	0.0655839
3102.9	0.0655128
3112.55	0.0656524
3122.19	0.0667918
3131.83	0.067196
3141.47	0.0668608
3151.11	0.0690514
3160.76	0.0683247
3170.4	0.06898
3180.04	0.0681009
3189.68	0.0695554
3199.33	0.0702592
3208.97	0.0699458
3218.61	0.0703473
3228.25	0.0705929
3237.9	0.07034
3247.54	0.0714972
3257.18	0.0710203
3266.82	0.0715356
3276.47	0.0716594
3286.11	0.0706431
3295.75	0.0717151
3305.39	0.0711683
3315.03	0.0728319
3324.68	0.0731022
3334.32	0.0730284
3343.96	0.072251
3353.6	0.0735735
3363.25	0.0737539
3372.89	0.0747415
3382.53	0.0742862
3392.17	0.0743871
3401.82	0.0751707
3411.46	0.0749757
3421.1	0.0749033
3430.74	0.0755132
3440.39	0.0759396
3450.03	0.0762342
3459.67	0.0760967
3469.31	0.0750855
3478.95	0.0764365
3488.6	0.0777858
3498.24	0.0755012
3507.88	0.0772791
3517.52	0.076184
3527.17	0.0777644
3536.81	0.0770289
3546.45	0.0772738
3556.09	0.0768121
3565.74	0.0789156
3575.38	0.0768761
3585.02	0.0778416
3594.66	0.0773815
3604.3	0.0768278
3613.95	0.0768327
3623.59	0.0781393
3633.23	0.078851
3642.87	0.07656
3652.52	0.080405
3662.16	0.0785862
3671.8	0.0788702
3681.44	0.07822
3691.09	0.0805371
3700.73	0.0811637
3710.37	0.0804607
3720.01	0.0801526
3729.66	0.0796144
3739.3	0.0814537
3748.94	0.0820206
3758.58	0.0815336
3768.22	0.0818948
3777.87	0.082505
3787.51	0.0814846
3797.15	0.0821621
3806.79	0.0831909
3816.44	0.0832944
3826.08	0.0835861
3835.72	0.0832023
3845.36	0.0838894
3855.01	0.0851266
3864.65	0.0859435
3874.29	0.0855433
3883.93	0.085358
3893.57	0.0851814
3903.22	0.0843144
3912.86	0.0861893
3922.5	0.0843393
3932.14	0.086894
3941.79	0.0879842
3951.43	0.0873277
3961.07	0.086718
3970.71	0.089004
3980.36	0.0877983
3990	0.0884209
3999.64	0.0888025
