Measurement: Infrared, Infrared Data Processed
Mineral: Titanite
Rruff sample: R050124
Ideal chemistry: CaTi^4+^SiO_5_
Locality: Capelinha, Minas Gerais, Brazil
Source: Carlos and Paulo Vasconcelos
Description: Yellow tabular crystal
Measured chemistry: Ca_1.00_(Ti_0.93_Al_0.05_Fe^3+^_0.02_)Si_1.00_O_4_(O)_1.00_
x	intensity
399.193	0
408.835	0.232723
418.477	0.242112
428.12	0.224905
437.762	0.203583
447.404	0.180776
457.047	0.165048
466.689	0.16905
476.331	0.15221
485.974	0.138035
495.616	0.129541
505.258	0.109993
514.901	0.0916596
524.543	0.0922386
534.185	0.106726
543.828	0.123936
553.47	0.15902
563.112	0.165854
572.755	0.133533
582.397	0.124966
592.039	0.120528
601.682	0.122778
611.324	0.133997
620.966	0.143696
630.609	0.151939
640.251	0.161849
649.893	0.168197
659.536	0.173826
669.178	0.179652
678.82	0.183601
688.463	0.184178
698.105	0.183731
707.747	0.18047
717.39	0.176095
727.032	0.173709
736.674	0.171298
746.317	0.166658
755.959	0.160736
765.601	0.159705
775.244	0.16621
784.886	0.176672
794.528	0.194513
804.171	0.221726
813.813	0.252094
823.455	0.292536
833.098	0.326297
842.74	0.345178
852.382	0.352149
862.025	0.342766
871.667	0.318808
881.309	0.281852
890.952	0.270542
900.594	0.248113
910.236	0.216626
919.879	0.194791
929.521	0.169877
939.163	0.145989
948.806	0.125001
958.448	0.103378
968.09	0.0844797
977.733	0.0666423
987.375	0.0491557
997.017	0.0353695
1006.66	0.025535
1016.3	0.0189063
1025.94	0.014653
1035.59	0.0126953
1045.23	0.0116104
1054.87	0.0110173
1064.51	0.0106517
1074.16	0.00993904
1083.8	0.00924211
1093.44	0.00786975
1103.08	0.00682052
1112.72	0.00646547
1122.37	0.00585185
1132.01	0.0057338
1141.65	0.00515466
1151.3	0.00505928
1160.94	0.0050219
1170.58	0.00468769
1180.22	0.00470923
1189.86	0.00490377
1199.51	0.00509558
1209.15	0.00517542
1218.79	0.00530766
1228.43	0.00535974
1238.08	0.00556526
1247.72	0.00565229
1257.36	0.00545173
1267	0.00533815
1276.64	0.00595471
1286.29	0.00557116
1295.93	0.00590709
1305.57	0.00617528
1315.21	0.00663862
1324.86	0.00692151
1334.5	0.00684997
1344.14	0.00752076
1353.78	0.00771449
1363.43	0.00789941
1373.07	0.00843904
1382.71	0.00879333
1392.35	0.0093283
1401.99	0.00987664
1411.64	0.0103123
1421.28	0.0109126
1430.92	0.0107099
1440.57	0.0109192
1450.21	0.0111104
1459.85	0.0112596
1469.49	0.0114443
1479.13	0.0113501
1488.78	0.0113233
1498.42	0.0117296
1508.06	0.0116064
1517.7	0.0120356
1527.35	0.0125589
1536.99	0.0130218
1546.63	0.0136872
1556.27	0.0141536
1565.91	0.0149291
1575.56	0.0148977
1585.2	0.0153548
1594.84	0.0158592
1604.48	0.0160524
1614.13	0.016009
1623.77	0.0157373
1633.41	0.0157444
1643.05	0.0159816
1652.7	0.0158987
1662.34	0.0167609
1671.98	0.0167309
1681.62	0.0166988
1691.27	0.0168257
1700.91	0.0172813
1710.55	0.0175758
1720.19	0.0178927
1729.84	0.0184109
1739.48	0.0176788
1749.12	0.0179296
1758.76	0.0180933
1768.4	0.0185441
1778.05	0.0183611
1787.69	0.0190231
1797.33	0.0189068
1806.97	0.0190256
1816.62	0.0185078
1826.26	0.0197188
1835.9	0.0196236
1845.54	0.0193295
1855.18	0.0204377
1864.83	0.0195637
1874.47	0.0205658
1884.11	0.0202477
1893.75	0.0204586
1903.4	0.0208115
1913.04	0.022067
1922.68	0.0207612
1932.32	0.0203134
1941.97	0.0203538
1951.61	0.0203832
1961.25	0.0227409
1970.89	0.0221562
1980.54	0.0266384
1990.18	0.025467
1999.82	0.0233691
2009.46	0.025394
2019.11	0.0248825
2028.75	0.0251171
2038.39	0.0253375
2048.03	0.0264648
2057.67	0.027556
2067.32	0.0266592
2076.96	0.0273239
2086.6	0.0271607
2096.24	0.0280506
2105.89	0.0281826
2115.53	0.02802
2125.17	0.0280058
2134.81	0.0280076
2144.45	0.0260381
2154.1	0.0244754
2163.74	0.0336934
2173.38	0.032384
2183.02	0.031235
2192.67	0.032219
2202.31	0.0312059
2211.95	0.0325059
2221.59	0.0331854
2231.24	0.0319325
2240.88	0.0330923
2250.52	0.0315633
2260.16	0.0344704
2269.8	0.0340728
2279.45	0.034339
2289.09	0.034513
2298.73	0.0348886
2308.38	0.0356714
2318.02	0.0357097
2327.66	0.0356913
2337.3	0.0353587
2346.94	0.035995
2356.59	0.0365134
2366.23	0.035652
2375.87	0.0366569
2385.51	0.0364776
2395.16	0.0372511
2404.8	0.0375683
2414.44	0.0377433
2424.08	0.0373649
2433.72	0.0375417
2443.37	0.0384261
2453.01	0.0385378
2462.65	0.0379426
2472.29	0.0390127
2481.94	0.0391055
2491.58	0.0387324
2501.22	0.0393427
2510.86	0.039184
2520.51	0.0401473
2530.15	0.040474
2539.79	0.041089
2549.43	0.0419504
2559.07	0.0410245
2568.72	0.0415408
2578.36	0.0415684
2588	0.0435482
2597.64	0.0419898
2607.29	0.0426977
2616.93	0.0436843
2626.57	0.0430599
2636.21	0.0432831
2645.86	0.0435704
2655.5	0.043054
2665.14	0.04368
2674.78	0.0434587
2684.43	0.0436479
2694.07	0.0438463
2703.71	0.0437407
2713.35	0.0441995
2722.99	0.0445056
2732.64	0.0447842
2742.28	0.0445341
2751.92	0.0460813
2761.56	0.0461306
2771.21	0.046026
2780.85	0.0469859
2790.49	0.0463993
2800.13	0.0468913
2809.78	0.0470151
2819.42	0.0483664
2829.06	0.0478515
2838.7	0.0481255
2848.34	0.0486791
2857.99	0.0467311
2867.63	0.0481537
2877.27	0.0484079
2886.91	0.0480634
2896.56	0.0494092
2906.2	0.0487343
2915.84	0.0490814
2925.48	0.0493888
2935.13	0.048526
2944.77	0.0499385
2954.41	0.0497223
2964.05	0.0490345
2973.7	0.0507884
2983.34	0.0513826
2992.98	0.0494536
3002.62	0.0516253
3012.26	0.05158
3021.91	0.0510385
3031.55	0.0523699
3041.19	0.052286
3050.83	0.0512029
3060.48	0.0520982
3070.12	0.0534797
3079.76	0.0532274
3089.4	0.0538008
3099.05	0.0536788
3108.69	0.0543314
3118.33	0.0536939
3127.97	0.0527198
3137.61	0.0557383
3147.26	0.055647
3156.9	0.0575745
3166.54	0.057296
3176.18	0.0541889
3185.83	0.0574879
3195.47	0.0562662
3205.11	0.0563541
3214.75	0.0570281
3224.4	0.057304
3234.04	0.0570365
3243.68	0.0576074
3253.32	0.0570797
3262.97	0.0590544
3272.61	0.0589452
3282.25	0.0589355
3291.89	0.0584575
3301.53	0.0590952
3311.18	0.0581371
3320.82	0.0584986
3330.46	0.058632
3340.1	0.060396
3349.75	0.0579956
3359.39	0.0595948
3369.03	0.0607188
3378.67	0.062388
3388.32	0.0608197
3397.96	0.0609917
3407.6	0.0599833
3417.24	0.0597992
3426.89	0.0615546
3436.53	0.0614441
3446.17	0.0616226
3455.81	0.0627019
3465.45	0.0623183
3475.1	0.0654818
3484.74	0.0629037
3494.38	0.0625736
3504.02	0.0602547
3513.67	0.0592671
3523.31	0.061177
3532.95	0.0623979
3542.59	0.0594727
3552.24	0.059762
3561.88	0.0621241
3571.52	0.0605927
3581.16	0.0625978
3590.8	0.0613104
3600.45	0.0613278
3610.09	0.0626524
3619.73	0.0605718
3629.37	0.0596416
3639.02	0.059416
3648.66	0.0613596
3658.3	0.0596651
3667.94	0.0605825
3677.59	0.059325
3687.23	0.0630933
3696.87	0.0606995
3706.51	0.0609726
3716.16	0.0652576
3725.8	0.0601537
3735.44	0.0618353
3745.08	0.0609454
3754.72	0.0636349
3764.37	0.0629387
3774.01	0.0643349
3783.65	0.0621539
3793.29	0.0644313
3802.94	0.0636258
3812.58	0.0640487
3822.22	0.0648277
3831.86	0.0645776
3841.51	0.0655952
3851.15	0.0640367
3860.79	0.0667336
3870.43	0.0641287
3880.07	0.0636003
3889.72	0.0645723
3899.36	0.0631312
3909	0.0664559
3918.64	0.0657324
3928.29	0.0624875
3937.93	0.066658
3947.57	0.0658873
3957.21	0.0686676
3966.86	0.0679535
3976.5	0.0668278
3986.14	0.0671181
3995.78	0.0688419
