Measurement: Infrared, Infrared Data Processed
Mineral: Topaz
Rruff sample: R050176
Ideal chemistry: Al_2_SiO_4_F_2_
Locality: Jos Plateau, Nigeria
Source: Marcus Origlieri
Description: Colorless prismatic crystal
Measured chemistry: Al_2.000_Si_1.000_O_4.000_(F_1.438_(OH)_0.562_)
x	intensity
50.1401	0.0274053
52.0686	0.013345
53.9971	0.0185609
55.9255	0.0227506
57.854	0.0162708
59.7825	0.0171025
61.7109	0.0164436
63.6394	0.0170212
65.5679	0.0190988
67.4963	0.0193117
69.4248	0.0200851
71.3533	0.0200808
73.2817	0.0221289
75.2102	0.0229543
77.1387	0.0214437
79.0671	0.0217152
80.9956	0.0220874
82.9241	0.0227192
84.8525	0.0231966
86.781	0.0233636
88.7095	0.0233885
90.6379	0.0238862
92.5664	0.0236478
94.4948	0.0248336
96.4233	0.0261886
98.3518	0.0270225
100.28	0.0264394
102.209	0.0268266
104.137	0.0262538
106.066	0.0269397
107.994	0.0282206
109.923	0.0281689
111.851	0.0289878
113.779	0.0296571
115.708	0.0298304
117.636	0.0298142
119.565	0.0295758
121.493	0.0293075
123.422	0.030403
125.35	0.031201
127.279	0.0307568
129.207	0.0320203
131.136	0.0323382
133.064	0.032412
134.993	0.0346714
136.921	0.0352914
138.85	0.0336187
140.778	0.0342545
142.707	0.0374297
144.635	0.0384148
146.563	0.0378913
148.492	0.0357878
150.42	0.0344456
152.349	0.0365965
154.277	0.0386464
156.206	0.039497
158.134	0.0395079
160.063	0.0413992
161.991	0.0430171
163.92	0.0435589
165.848	0.0436838
167.777	0.0439452
169.705	0.0436562
171.633	0.0442693
173.562	0.0455175
175.49	0.046546
177.419	0.0487571
179.347	0.0489778
181.276	0.0451443
183.204	0.0426243
185.133	0.0403374
187.061	0.0399453
188.99	0.041033
190.918	0.0430496
192.847	0.0438073
194.775	0.044072
196.704	0.0454396
198.632	0.0464911
200.56	0.0458834
202.489	0.0439982
204.417	0.0464999
206.346	0.047919
208.274	0.0476252
210.203	0.0498825
212.131	0.051341
214.06	0.0508258
215.988	0.0504442
217.917	0.0508526
219.845	0.0507335
221.774	0.0497986
223.702	0.050196
225.631	0.0500999
227.559	0.0496265
229.488	0.0517006
231.416	0.0531906
233.344	0.0541754
235.273	0.0550712
237.201	0.0556785
239.13	0.0560953
241.058	0.0567529
242.987	0.056828
244.915	0.0558037
246.844	0.0551883
248.772	0.0561789
250.701	0.058253
252.629	0.05801
254.558	0.0586195
256.486	0.0613722
258.414	0.0628036
260.343	0.063844
262.271	0.0652032
264.2	0.0664678
266.128	0.0679294
268.057	0.0712718
269.985	0.0708674
271.914	0.0618499
273.842	0.0535557
275.771	0.0528381
277.699	0.0539482
279.628	0.0568901
281.556	0.0602216
283.485	0.0638188
285.413	0.0666989
287.341	0.0681642
289.27	0.0694147
291.198	0.0728784
293.127	0.0758205
295.055	0.074053
296.984	0.0664107
298.912	0.060283
300.841	0.059247
302.769	0.0612481
304.698	0.0677546
306.626	0.0728822
308.555	0.0765194
310.483	0.0775278
312.411	0.0716921
314.34	0.0614893
316.269	0.0572696
318.197	0.0597889
320.125	0.0634316
322.054	0.0651959
323.982	0.0667751
325.911	0.069632
327.839	0.0720948
329.768	0.076501
331.696	0.0804356
333.625	0.0824214
335.553	0.0812522
337.482	0.075697
339.41	0.0685841
341.339	0.0651358
343.267	0.0642944
345.195	0.0655431
347.124	0.0677077
349.052	0.0691522
350.981	0.0706648
352.909	0.0727228
354.838	0.0750104
356.766	0.0772773
358.695	0.0794178
360.623	0.0816943
362.552	0.0837908
364.48	0.086149
366.409	0.0881764
368.337	0.0882987
370.265	0.085845
372.194	0.0835372
374.122	0.083253
376.051	0.0862261
377.979	0.0871735
379.908	0.0836472
381.836	0.0835716
383.765	0.0869434
385.693	0.0903783
387.622	0.0929961
389.55	0.0942639
391.479	0.0939479
393.407	0.0916647
395.336	0.0875153
397.264	0.0823862
399.192	0.0782155
401.121	0.0765223
403.049	0.0772463
404.978	0.0797415
406.906	0.0827149
408.835	0.0859797
410.763	0.0893389
412.692	0.0923806
414.62	0.0950015
416.549	0.0974016
418.477	0.0994353
420.406	0.100597
422.334	0.0983317
424.262	0.0970504
426.191	0.0997436
428.12	0.102823
430.048	0.105761
431.976	0.108408
433.905	0.110215
435.833	0.111474
437.762	0.112766
439.69	0.113968
441.619	0.114918
443.547	0.115787
445.476	0.116785
447.404	0.117345
449.333	0.117882
451.261	0.117782
453.19	0.11654
455.118	0.114558
457.046	0.112174
458.975	0.109318
460.903	0.105062
462.832	0.100139
464.76	0.0968397
466.689	0.0927778
468.617	0.0876271
470.546	0.084944
472.474	0.0878553
474.403	0.0944464
476.331	0.100235
478.26	0.103761
480.188	0.105416
482.116	0.105202
484.045	0.101663
485.974	0.0956647
487.902	0.0898968
489.83	0.0863155
491.759	0.0848872
493.687	0.0840343
495.616	0.0838532
497.544	0.0841342
499.473	0.0842218
501.401	0.0843239
503.33	0.0850649
505.258	0.0860574
507.187	0.0864033
509.115	0.0865
511.043	0.0857789
512.972	0.0843528
514.9	0.0830977
516.829	0.0829877
518.757	0.0836624
520.686	0.084837
522.614	0.0863134
524.543	0.0873825
526.471	0.0870464
528.4	0.0848097
530.328	0.0805036
532.257	0.0757349
534.185	0.0724659
536.114	0.0708525
538.042	0.0695222
539.971	0.068329
541.899	0.0676584
543.827	0.0673016
545.756	0.0669569
547.684	0.0672058
549.613	0.0679735
551.541	0.0691356
553.47	0.0715511
555.398	0.0750231
557.327	0.0769758
559.255	0.0765754
561.184	0.0758473
563.112	0.0758491
565.041	0.0753013
566.969	0.0735818
568.898	0.0706421
570.826	0.0678414
572.755	0.0665533
574.683	0.0675794
576.611	0.0713057
578.54	0.0771357
580.468	0.0831968
582.397	0.0876077
584.325	0.0887489
586.254	0.0887489
588.182	0.0886797
590.111	0.0886077
592.039	0.0905208
593.968	0.0955487
595.896	0.101847
597.824	0.107697
599.753	0.113066
601.682	0.118061
603.61	0.122642
605.538	0.127344
607.467	0.130912
609.395	0.133651
611.324	0.1352
613.252	0.135432
615.181	0.135706
617.109	0.135586
619.038	0.13418
620.966	0.131096
622.894	0.12751
624.823	0.124269
626.751	0.121286
628.68	0.118729
630.608	0.11613
632.537	0.11316
634.465	0.109963
636.394	0.107088
638.322	0.104257
640.251	0.101076
642.179	0.0980421
644.108	0.0955093
646.036	0.0929173
647.965	0.0903447
649.893	0.0874923
651.822	0.0846479
653.75	0.0821682
655.678	0.0798053
657.607	0.0771574
659.535	0.0745249
661.464	0.0719209
663.392	0.069614
665.321	0.0669708
667.249	0.064127
669.178	0.0618663
671.106	0.0595199
673.035	0.0569227
674.963	0.0546015
676.892	0.0529034
678.82	0.0518391
680.749	0.0511764
682.677	0.0500809
684.606	0.048386
686.534	0.0472181
688.462	0.0456928
690.391	0.0444405
692.319	0.0435995
694.248	0.0445218
696.176	0.0452853
698.105	0.045097
700.033	0.0448456
