Measurement: Infrared, Infrared Data Processed
Mineral: Topaz
Rruff sample: R050404
Ideal chemistry: Al_2_SiO_4_F_2_
Locality: Minas Gerais, Brazil
Source: Gerry Gibbs
Description: Colorless cleavage fragments
Measured chemistry: Al_2.00_Si_1.00_O_4_(F_0.86_(OH)_0.14_)_2_
x	intensity
399.193	0.205212
408.835	0.210465
418.477	0.254717
428.12	0.270056
437.762	0.285185
447.404	0.292166
457.047	0.254442
466.689	0.195694
476.331	0.217982
485.974	0.182111
495.616	0.159042
505.258	0.166875
514.901	0.160742
524.543	0.160759
534.185	0.120485
543.828	0.104927
553.47	0.119223
563.112	0.134312
572.755	0.10051
582.397	0.159569
592.039	0.181155
601.682	0.27104
611.324	0.303755
620.966	0.256492
630.609	0.193275
640.251	0.149498
649.893	0.114059
659.536	0.0845663
669.178	0.057919
678.82	0.0412015
688.463	0.0294738
698.105	0.0303214
707.747	0.0389906
717.39	0.0237597
727.032	0.0212622
736.674	0.0224306
746.317	0.0232936
755.959	0.0282883
765.601	0.0397497
775.244	0.0454092
784.886	0.0552136
794.528	0.0789615
804.171	0.113342
813.813	0.156324
823.455	0.206388
833.098	0.257721
842.74	0.30137
852.382	0.324374
862.025	0.336539
871.667	0.321254
881.309	0.281936
890.952	0.238978
900.594	0.213611
910.236	0.188982
919.879	0.168593
929.521	0.149308
939.163	0.138954
948.806	0.114017
958.448	0.0932726
968.09	0.0758497
977.733	0.0602693
987.375	0.0548049
997.017	0.062573
1006.66	0.0586817
1016.3	0.0435647
1025.94	0.0318406
1035.59	0.0238783
1045.23	0.017322
1054.87	0.0123371
1064.51	0.0089936
1074.16	0.00697963
1083.8	0.00570377
1093.44	0.00440479
1103.08	0.00387877
1112.72	0.00301959
1122.37	0.00266664
1132.01	0.00277452
1141.65	0.00337604
1151.3	0.00789872
1160.94	0.0279244
1170.58	0.0156297
1180.22	0.00238342
1189.86	0.000335852
1199.51	-0.000740351
1209.15	-0.000940581
1218.79	-0.00191443
1228.43	-0.00247206
1238.08	-0.00283051
1247.72	-0.00333905
1257.36	-0.00316715
1267	-0.00375503
1276.64	-0.00347052
1286.29	-0.00343727
1295.93	-0.00342044
1305.57	-0.00336217
1315.21	-0.00304445
1324.86	-0.00315802
1334.5	-0.00387992
1344.14	-0.0040806
1353.78	-0.00567386
1363.43	-0.0063591
1373.07	-0.00599435
1382.71	-0.00550935
1392.35	-0.00443592
1401.99	-0.00446185
1411.64	-0.00436567
1421.28	-0.00402047
1430.92	-0.00404162
1440.57	-0.00475956
1450.21	-0.00517513
1459.85	-0.00621889
1469.49	-0.00546176
1479.13	-0.00227086
1488.78	-0.00207358
1498.42	-0.00190605
1508.06	-0.00147904
1517.7	-0.00149632
1527.35	-0.00183435
1536.99	-0.00234476
1546.63	-0.00290184
1556.27	-0.00278278
1565.91	-0.00274039
1575.56	-0.00273235
1585.2	-0.00305929
1594.84	-0.0031144
1604.48	-0.0040284
1614.13	-0.00458304
1623.77	-0.0043622
1633.41	-0.0042299
1643.05	-0.00470768
1652.7	-0.00409293
1662.34	-0.00419206
1671.98	-0.0045324
1681.62	-0.00371939
1691.27	-0.00341493
1700.91	-0.00375111
1710.55	-0.00505697
1720.19	-0.00519761
1729.84	-0.00698979
1739.48	-0.0110565
1749.12	-0.00952979
1758.76	-0.00344327
1768.4	-0.00200143
1778.05	-0.00139353
1787.69	-0.00113527
1797.33	-0.000960889
1806.97	-0.000873948
1816.62	-0.000637475
1826.26	-0.00189748
1835.9	-0.000657188
1845.54	-0.000507081
1855.18	-0.000484728
1864.83	-0.00226727
1874.47	-0.00139575
1884.11	5.91217e-05
1893.75	-0.00197819
1903.4	-0.00153546
1913.04	-0.00170285
1922.68	-0.00290739
1932.32	-0.00284253
1941.97	-0.0024129
1951.61	-0.00162386
1961.25	-0.00333236
1970.89	-0.00247834
1980.54	-0.00405382
1990.18	-0.00160105
1999.82	-0.00608686
2009.46	-0.00584542
2019.11	-0.00655928
2028.75	-0.00510751
2038.39	-0.00464146
2048.03	-0.00241219
2057.67	-0.00174157
2067.32	-0.00137713
2076.96	-0.0013705
2086.6	-0.0019827
2096.24	-0.00038603
2105.89	-0.000683903
2115.53	-1.89257e-05
2125.17	-0.00181198
2134.81	9.76901e-05
2144.45	-0.00354611
2154.1	-0.00346833
2163.74	0.00457181
2173.38	-0.00151049
2183.02	-0.000816354
2192.67	0.000933962
2202.31	-0.000347573
2211.95	-0.000811134
2221.59	-0.00047261
2231.24	-8.45721e-05
2240.88	0.000664907
2250.52	0.000392982
2260.16	-0.000787734
2269.8	0.0021499
2279.45	0.0017786
2289.09	0.000140175
2298.73	0.0019217
2308.38	0.00101548
2318.02	0.00199207
2327.66	0.000174471
2337.3	0.000718085
2346.94	0.00035482
2356.59	0.00014462
2366.23	0.000411226
2375.87	0.000698739
2385.51	0.000646684
2395.16	0.000333529
2404.8	0.00149452
2414.44	0.000251311
2424.08	0.00170303
2433.72	0.00051662
2443.37	0.00049866
2453.01	0.00307194
2462.65	0.000193159
2472.29	0.00015721
2481.94	0.00191164
2491.58	0.000462578
2501.22	0.000789179
2510.86	0.000860993
2520.51	0.000762001
2530.15	0.00109156
2539.79	0.000242894
2549.43	-0.00131143
2559.07	0.00242117
2568.72	0.000909026
2578.36	0.000923297
2588	0.00219454
2597.64	0.000781446
2607.29	0.000248658
2616.93	0.000480732
2626.57	0.00208494
2636.21	0.00140551
2645.86	0.000852097
2655.5	0.000269009
2665.14	0.000263184
2674.78	-0.000837217
2684.43	0.000125954
2694.07	0.000574564
2703.71	0.00107242
2713.35	0.00115522
2722.99	0.0027917
2732.64	0.000645516
2742.28	-0.000288296
2751.92	0.00173468
2761.56	0.00248714
2771.21	0.00101807
2780.85	0.00210305
2790.49	0.000209803
2800.13	0.00136671
2809.78	0.00243276
2819.42	0.000484699
2829.06	-0.000657108
2838.7	-1.99336e-05
2848.34	-0.00080738
2857.99	0.00194841
2867.63	0.00279783
2877.27	0.00180385
2886.91	0.00102583
2896.56	0.00127822
2906.2	-8.67974e-05
2915.84	-0.00113849
2925.48	0.00388296
2935.13	0.00525784
2944.77	0.00358344
2954.41	0.00127199
2964.05	0.0055266
2973.7	0.00221312
2983.34	0.00476379
2992.98	0.0061682
3002.62	0.00486807
3012.26	0.00385069
3021.91	0.00579303
3031.55	-0.000384815
3041.19	0.00432742
3050.83	0.00193293
3060.48	0.0026915
3070.12	-0.000224271
3079.76	0.00193035
3089.4	0.00489191
3099.05	0.00280607
3108.69	0.000797189
3118.33	-0.00194564
3127.97	0.00207661
3137.61	0.00175507
3147.26	0.00295261
3156.9	0.000820002
3166.54	-0.000163561
3176.18	0.00161427
3185.83	0.000882229
3195.47	-0.000732488
3205.11	-0.001394
3214.75	0.000440627
3224.4	0.000603333
3234.04	0.000820632
3243.68	0.000901262
3253.32	-0.000198222
3262.97	-0.00105006
3272.61	-0.000558871
3282.25	-0.00244118
3291.89	-0.000151168
3301.53	-0.000722797
3311.18	-0.000252098
3320.82	-4.83033e-05
3330.46	0.000964906
3340.1	-0.00131517
3349.75	-0.000380981
3359.39	0.00100537
3369.03	0.00087164
3378.67	0.000368359
3388.32	0.00146999
3397.96	-0.00132074
3407.6	-0.00034715
3417.24	0.00329256
3426.89	0.0022821
3436.53	-0.00169917
3446.17	0.00275498
3455.81	0.00010615
3465.45	-0.000352011
3475.1	0.00134479
3484.74	-0.000150672
3494.38	0.0010599
3504.02	0.000991025
3513.67	0.00420466
3523.31	0.0024388
3532.95	0.00388326
3542.59	-0.000333207
3552.24	0.00493917
3561.88	0.000631533
3571.52	-0.000185663
3581.16	0.00335964
3590.8	0.00652362
3600.45	0.00191542
3610.09	0.00131957
3619.73	0.00293158
3629.37	0.00633734
3639.02	0.00642112
3648.66	0.0244086
3658.3	0.00303908
3667.94	0.000367804
3677.59	-4.30136e-05
3687.23	0.00239748
3696.87	0.00219546
3706.51	0.00139255
3716.16	0.000585472
3725.8	0.000105677
3735.44	0.00395259
3745.08	0.00524976
3754.72	0.00148114
3764.37	0.00221419
3774.01	0.0029984
3783.65	0.00223419
3793.29	0.00696558
3802.94	0.00477701
3812.58	-0.000891749
3822.22	0.00178159
3831.86	0.00163128
3841.51	0.00199167
3851.15	0.00198695
3860.79	0.00461556
3870.43	0.00112391
3880.07	0.00406671
3889.72	0.000359748
3899.36	0.00261641
3909	0.00585225
3918.64	0.00466819
3928.29	0.00386649
3937.93	0.00138652
3947.57	0.00616018
3957.21	0.00329962
3966.86	0.00449947
3976.5	0.00190336
3986.14	0.00531951
3995.78	0.00393942
