Measurement: Infrared, Infrared Data Processed
Mineral: Topaz
Rruff sample: R060026
Ideal chemistry: Al_2_SiO_4_F_2_
Locality: Capao Topaz mine, Minas Gerais, Brazil, GPS Coordinates: 20 25 58 S, 43 38 25 W, 3694 ft. ASL
Source: Eric Van Valkenburg
Description: Transparent brown prismatic crystal
Measured chemistry: Al_2.00_Si_1.00_O_4_(F_0.60_(OH)_0.40_)_2_
x	intensity
399.193	0.291538
408.835	0.268752
418.477	0.289637
428.12	0.305398
437.762	0.304865
447.404	0.295221
457.047	0.252251
466.689	0.212933
476.331	0.220818
485.974	0.191677
495.616	0.185285
505.258	0.190338
514.901	0.181467
524.543	0.159358
534.185	0.14911
543.828	0.147257
553.47	0.156301
563.112	0.142895
572.755	0.145285
582.397	0.180961
592.039	0.242926
601.682	0.279518
611.324	0.271493
620.966	0.227368
630.609	0.182183
640.251	0.144835
649.893	0.114019
659.536	0.0867588
669.178	0.0659719
678.82	0.0535392
688.463	0.0497763
698.105	0.048635
707.747	0.0393428
717.39	0.0311009
727.032	0.0319484
736.674	0.0387568
746.317	0.0537699
755.959	0.0690464
765.601	0.0898949
775.244	0.0903044
784.886	0.113162
794.528	0.160283
804.171	0.214867
813.813	0.265678
823.455	0.308949
833.098	0.33261
842.74	0.332857
852.382	0.324352
862.025	0.309792
871.667	0.287518
881.309	0.253626
890.952	0.229752
900.594	0.206075
910.236	0.183114
919.879	0.162263
929.521	0.145047
939.163	0.121438
948.806	0.0993027
958.448	0.0788722
968.09	0.0621305
977.733	0.0567808
987.375	0.0614664
997.017	0.0581354
1006.66	0.0458858
1016.3	0.0362424
1025.94	0.0289716
1035.59	0.0216384
1045.23	0.0153389
1054.87	0.0117926
1064.51	0.00973272
1074.16	0.00836972
1083.8	0.00757054
1093.44	0.00704606
1103.08	0.00717352
1112.72	0.00743836
1122.37	0.00897355
1132.01	0.012645
1141.65	0.0265222
1151.3	0.0767592
1160.94	0.0860085
1170.58	0.0508358
1180.22	0.0173267
1189.86	0.00669441
1199.51	0.00509909
1209.15	0.00361476
1218.79	0.00174141
1228.43	0.000757653
1238.08	0.000225589
1247.72	-0.000167492
1257.36	-0.000437936
1267	-0.000629144
1276.64	-0.000776007
1286.29	-0.000646979
1295.93	-0.000629311
1305.57	-0.000747798
1315.21	-0.000887002
1324.86	-0.00079865
1334.5	-0.000829233
1344.14	-0.000791951
1353.78	-0.000751625
1363.43	-0.000995921
1373.07	-0.000858969
1382.71	-0.000651865
1392.35	-0.000567462
1401.99	-0.000296071
1411.64	-0.000126649
1421.28	-0.000618677
1430.92	6.20657e-05
1440.57	0.000428061
1450.21	0.000878652
1459.85	0.00103409
1469.49	0.00166811
1479.13	0.00216851
1488.78	0.00117812
1498.42	0.00075137
1508.06	-0.000801947
1517.7	-0.000215347
1527.35	1.75609e-05
1536.99	-0.000504441
1546.63	-1.27089e-05
1556.27	-0.00127309
1565.91	0.000535457
1575.56	-0.00100561
1585.2	0.000687936
1594.84	0.000872203
1604.48	0.00094982
1614.13	0.000447952
1623.77	0.000200872
1633.41	0.000263025
1643.05	0.000693153
1652.7	-0.00344497
1662.34	0.000393764
1671.98	0.000256102
1681.62	0.000178322
1691.27	0.000894807
1700.91	-0.00188688
1710.55	0.000539935
1720.19	0.000150145
1729.84	0.000320008
1739.48	-0.000708935
1749.12	-0.00122459
1758.76	0.000212849
1768.4	0.000176682
1778.05	0.00132682
1787.69	0.00148901
1797.33	0.000919382
1806.97	0.00156387
1816.62	0.00102278
1826.26	0.00140893
1835.9	0.00124916
1845.54	0.000988615
1855.18	0.00179723
1864.83	0.00160657
1874.47	0.00175503
1884.11	0.00160198
1893.75	0.00143372
1903.4	0.00140021
1913.04	0.00100135
1922.68	0.000551432
1932.32	0.000891134
1941.97	0.000760774
1951.61	0.000473089
1961.25	0.000558592
1970.89	-0.00137178
1980.54	0.00274131
1990.18	0.000985349
1999.82	-0.000154973
2009.46	-9.80692e-05
2019.11	0.000939326
2028.75	0.000786563
2038.39	0.00291279
2048.03	0.00260882
2057.67	0.00106402
2067.32	0.00236398
2076.96	0.00296922
2086.6	0.00248731
2096.24	0.0018921
2105.89	0.00315655
2115.53	0.00248679
2125.17	0.00123528
2134.81	-0.000257722
2144.45	-0.000130589
2154.1	-0.00131756
2163.74	0.00457275
2173.38	0.002795
2183.02	0.00338563
2192.67	0.00374493
2202.31	0.00376748
2211.95	0.00330362
2221.59	0.0036085
2231.24	0.00335549
2240.88	0.00365763
2250.52	0.00330548
2260.16	0.00398562
2269.8	0.00425503
2279.45	0.0046803
2289.09	0.00465818
2298.73	0.00400493
2308.38	0.00364528
2318.02	0.00466303
2327.66	0.00455707
2337.3	0.00414972
2346.94	0.00355642
2356.59	0.00437301
2366.23	0.00432752
2375.87	0.003043
2385.51	0.00256959
2395.16	0.00261586
2404.8	0.00324373
2414.44	0.00360291
2424.08	0.00352293
2433.72	0.00347755
2443.37	0.00380149
2453.01	0.00389383
2462.65	0.00391118
2472.29	0.00301657
2481.94	0.00361542
2491.58	0.00407396
2501.22	0.00363295
2510.86	0.00374538
2520.51	0.00363758
2530.15	0.00363897
2539.79	0.00365089
2549.43	0.00423368
2559.07	0.00387005
2568.72	0.00393348
2578.36	0.00360177
2588	0.00430358
2597.64	0.0041546
2607.29	0.00422647
2616.93	0.00465855
2626.57	0.00514936
2636.21	0.00462876
2645.86	0.00464851
2655.5	0.00464725
2665.14	0.00373495
2674.78	0.00379915
2684.43	0.0038779
2694.07	0.00390983
2703.71	0.00385372
2713.35	0.00436303
2722.99	0.00422514
2732.64	0.00431207
2742.28	0.00421449
2751.92	0.00408629
2761.56	0.00414854
2771.21	0.00447118
2780.85	0.00441885
2790.49	0.00464568
2800.13	0.00429046
2809.78	0.00423367
2819.42	0.00449383
2829.06	0.0048518
2838.7	0.0049775
2848.34	0.00331793
2857.99	0.00418811
2867.63	0.00430826
2877.27	0.00427367
2886.91	0.00400458
2896.56	0.00411973
2906.2	0.00444186
2915.84	0.00323712
2925.48	0.00291006
2935.13	0.00326652
2944.77	0.0039387
2954.41	0.00418522
2964.05	0.00444001
2973.7	0.0035339
2983.34	0.0038141
2992.98	0.00394141
3002.62	0.00373998
3012.26	0.00394809
3021.91	0.00390017
3031.55	0.00361081
3041.19	0.00363371
3050.83	0.00395879
3060.48	0.00408329
3070.12	0.00356811
3079.76	0.00375317
3089.4	0.00426051
3099.05	0.00434241
3108.69	0.0041719
3118.33	0.00461202
3127.97	0.00437057
3137.61	0.00508448
3147.26	0.00464413
3156.9	0.00471125
3166.54	0.00476428
3176.18	0.00465006
3185.83	0.00438957
3195.47	0.0044822
3205.11	0.00448827
3214.75	0.00538943
3224.4	0.00457422
3234.04	0.00474971
3243.68	0.00522637
3253.32	0.00431172
3262.97	0.00451624
3272.61	0.00498502
3282.25	0.00408402
3291.89	0.00488305
3301.53	0.00476432
3311.18	0.00453135
3320.82	0.0044898
3330.46	0.00482799
3340.1	0.0046249
3349.75	0.00444207
3359.39	0.00469939
3369.03	0.004557
3378.67	0.00494011
3388.32	0.00441056
3397.96	0.00455502
3407.6	0.00408023
3417.24	0.00430808
3426.89	0.00385592
3436.53	0.00383583
3446.17	0.00340008
3455.81	0.00362502
3465.45	0.00424853
3475.1	0.00401292
3484.74	0.0037901
3494.38	0.0041132
3504.02	0.0033778
3513.67	0.00383241
3523.31	0.00302227
3532.95	0.00459402
3542.59	0.00362416
3552.24	0.0035656
3561.88	0.00471426
3571.52	0.00487434
3581.16	0.00404177
3590.8	0.00524348
3600.45	0.00675295
3610.09	0.0090022
3619.73	0.0165884
3629.37	0.0337466
3639.02	0.0476429
3648.66	0.0274807
3658.3	0.00252035
3667.94	-0.00305134
3677.59	-0.00379828
3687.23	-0.00475364
3696.87	-0.00158892
3706.51	-0.000855402
3716.16	-0.000518053
3725.8	-0.00156028
3735.44	-0.00259771
3745.08	-0.0067936
3754.72	-0.00148676
3764.37	-0.00139661
3774.01	0.000175452
3783.65	-0.000627721
3793.29	-0.000542753
3802.94	-0.00278165
3812.58	-0.000844654
3822.22	-0.00303823
3831.86	-0.00206114
3841.51	-0.00193437
3851.15	-0.00515745
3860.79	-0.00117265
3870.43	-0.00375832
3880.07	-0.00256749
3889.72	-0.0018142
3899.36	-0.00188891
3909	8.67813e-05
3918.64	-0.000856083
3928.29	-0.00087289
3937.93	-0.00123937
3947.57	-0.000907374
3957.21	-0.000917322
3966.86	-0.000683605
3976.5	-0.0013226
3986.14	-0.000652865
3995.78	-0.00117938
