Measurement: Infrared, Infrared Data Processed
Mineral: Topaz
Rruff sample: R050200
Ideal chemistry: Al_2_SiO_4_F_2_
Locality: Jos Plateau, Nigeria
Source: Marcus Origlieri
Description: Colorless water-worn single crystal
Measured chemistry: Al_2.000_Si_1.000_O_4.000_F_1.488_(OH)_0.512_
x	intensity
50.1401	0.0117075
52.0686	0.00888601
53.9971	0.00351202
55.9255	0.00446197
57.854	0.00752824
59.7825	0.0100152
61.7109	0.0112937
63.6394	0.00917781
65.5679	0.00702653
67.4963	0.00549223
69.4248	0.00786171
71.3533	0.00838494
73.2817	0.0102727
75.2102	0.0120286
77.1387	0.0129019
79.0671	0.0121386
80.9956	0.011675
82.9241	0.0115411
84.8525	0.0114818
86.781	0.0114864
88.7095	0.0125492
90.6379	0.0131166
92.5664	0.0133643
94.4948	0.0141901
96.4233	0.0153441
98.3518	0.0158068
100.28	0.0150659
102.209	0.0139753
104.137	0.0141368
106.066	0.0152372
107.994	0.0159803
109.923	0.0162128
111.851	0.0160722
113.779	0.0161615
115.708	0.0167043
117.636	0.0166006
119.565	0.0170305
121.493	0.0173851
123.422	0.017899
125.35	0.0183068
127.279	0.0188629
129.207	0.01944
131.136	0.0204158
133.064	0.0205139
134.993	0.0208692
136.921	0.0217974
138.85	0.0226234
140.778	0.0231333
142.707	0.0232864
144.635	0.023333
146.563	0.0239287
148.492	0.0242177
150.42	0.0243847
152.349	0.0250919
154.277	0.0252257
156.206	0.0253953
158.134	0.0263132
160.063	0.0267506
161.991	0.0270632
163.92	0.0275412
165.848	0.0280085
167.777	0.0282504
169.705	0.0285775
171.633	0.0291632
173.562	0.0303649
175.49	0.0321976
177.419	0.0347586
179.347	0.035514
181.276	0.0339246
183.204	0.0318823
185.133	0.0293543
187.061	0.0287801
188.99	0.0302218
190.918	0.0313806
192.847	0.0321259
194.775	0.0325904
196.704	0.0328856
198.632	0.0330892
200.56	0.03348
202.489	0.0339754
204.417	0.0343254
206.346	0.034789
208.274	0.0355315
210.203	0.036664
212.131	0.0380726
214.06	0.0386837
215.988	0.0376077
217.917	0.0370921
219.845	0.0377101
221.774	0.0381817
223.702	0.0384045
225.631	0.0387032
227.559	0.0393691
229.488	0.0402569
231.416	0.0410913
233.344	0.0412758
235.273	0.0416687
237.201	0.0421181
239.13	0.0423795
241.058	0.0427444
242.987	0.0432661
244.915	0.0440092
246.844	0.0449408
248.772	0.0458769
250.701	0.0467146
252.629	0.0475502
254.558	0.0484329
256.486	0.0488306
258.414	0.0494848
260.343	0.0502365
262.271	0.0510595
264.2	0.0521512
266.128	0.0538554
268.057	0.055249
269.985	0.0541979
271.914	0.0486449
273.842	0.0443504
275.771	0.0455353
277.699	0.0484989
279.628	0.0509101
281.556	0.0522921
283.485	0.0537064
285.413	0.0550834
287.341	0.0563128
289.27	0.0576511
291.198	0.0590757
293.127	0.0600664
295.055	0.0587965
296.984	0.0543465
298.912	0.0511399
300.841	0.0520778
302.769	0.054983
304.698	0.0576491
306.626	0.0599041
308.555	0.0615459
310.483	0.0613138
312.411	0.0575488
314.34	0.0519469
316.269	0.0497385
318.197	0.0516894
320.125	0.0545783
322.054	0.0566794
323.982	0.0587469
325.911	0.0606892
327.839	0.0622242
329.768	0.0640596
331.696	0.0658004
333.625	0.066598
335.553	0.0653884
337.482	0.0614996
339.41	0.0583826
341.339	0.057511
343.267	0.0568833
345.195	0.0576095
347.124	0.0596499
349.052	0.0614842
350.981	0.0626869
352.909	0.0641997
354.838	0.0656926
356.766	0.0670677
358.695	0.0684711
360.623	0.0697285
362.552	0.0708811
364.48	0.072159
366.409	0.0731824
368.337	0.0729617
370.265	0.0715558
372.194	0.0709066
374.122	0.072069
376.051	0.0733084
377.979	0.072609
379.908	0.0709541
381.836	0.0715178
383.765	0.0734273
385.693	0.0749189
387.622	0.075876
389.55	0.0761177
391.479	0.0756823
393.407	0.0745414
395.336	0.0724644
397.264	0.0697088
399.192	0.0676544
401.121	0.0672033
403.049	0.068047
404.978	0.0700033
406.906	0.0720757
408.835	0.0740446
410.763	0.0761005
412.692	0.0778703
414.62	0.0795674
416.549	0.0812498
418.477	0.0825579
420.406	0.0830492
422.334	0.0816765
424.262	0.0813267
426.191	0.0829964
428.12	0.0847167
430.048	0.0861548
431.976	0.0875617
433.905	0.088631
435.833	0.089298
437.762	0.0897034
439.69	0.0897552
441.619	0.0897819
443.547	0.0900223
445.476	0.0902177
447.404	0.0903029
449.333	0.0903608
451.261	0.0902425
453.19	0.089472
455.118	0.0881419
457.046	0.0868483
458.975	0.0850292
460.903	0.0823196
462.832	0.0801237
464.76	0.0787366
466.689	0.0765366
468.617	0.0741478
470.546	0.0744133
472.474	0.0777062
474.403	0.0821227
476.331	0.0856299
478.26	0.0870623
480.188	0.0869499
482.116	0.0854462
484.045	0.0824943
485.974	0.0784953
487.902	0.0751616
489.83	0.0740097
491.759	0.0740283
493.687	0.0740982
495.616	0.0740813
497.544	0.0741784
499.473	0.0747121
501.401	0.0754824
503.33	0.0760336
505.258	0.076653
507.187	0.076892
509.115	0.0766112
511.043	0.0757792
512.972	0.0749832
514.9	0.0752705
516.829	0.0762422
518.757	0.077389
520.686	0.0781272
522.614	0.0784999
524.543	0.0788489
526.471	0.0779605
528.4	0.0752304
530.328	0.0717804
532.257	0.0690219
534.185	0.067293
536.114	0.0657294
538.042	0.0643798
539.971	0.0631864
541.899	0.0619193
543.827	0.0607455
545.756	0.0599384
547.684	0.0599295
549.613	0.0609644
551.541	0.0631342
553.47	0.0666648
555.398	0.0703946
557.327	0.072175
559.255	0.0722581
561.184	0.0720947
563.112	0.0719095
565.041	0.0714528
566.969	0.069772
568.898	0.06652
570.826	0.0635892
572.755	0.0627776
574.683	0.0646382
576.611	0.0684913
578.54	0.0735889
580.468	0.0792357
582.397	0.0828689
584.325	0.0839314
586.254	0.0840522
588.182	0.0836475
590.111	0.0835643
592.039	0.0859609
593.968	0.0905646
595.896	0.0952212
597.824	0.0993466
599.753	0.103119
601.682	0.106019
603.61	0.108221
605.538	0.110063
607.467	0.111439
609.395	0.112062
611.324	0.112334
613.252	0.112143
615.181	0.111011
617.109	0.109442
619.038	0.108079
620.966	0.106466
622.894	0.104157
624.823	0.10138
626.751	0.0991201
628.68	0.09755
630.608	0.0961623
632.537	0.0944098
634.465	0.0922063
636.394	0.0899566
638.322	0.0880474
640.251	0.0858714
642.179	0.0833613
644.108	0.0816292
646.036	0.0798873
647.965	0.0779078
649.893	0.0760823
651.822	0.0742846
653.75	0.0725258
655.678	0.0705203
657.607	0.0684759
659.535	0.0668577
661.464	0.0652
663.392	0.0630567
665.321	0.0608173
667.249	0.0590618
669.178	0.0574552
671.106	0.0557102
673.035	0.0536174
674.963	0.0516629
676.892	0.0505498
678.82	0.0504064
680.749	0.0500205
682.677	0.0491872
684.606	0.0474698
686.534	0.0462171
688.462	0.0454974
690.391	0.0455398
692.319	0.0449284
694.248	0.0445217
696.176	0.0452855
698.105	0.0458514
700.033	0.0460148
