Measurement: Infrared, Infrared Data Processed
Mineral: Tremolite
Rruff sample: R050210
Ideal chemistry: [box]Ca_2_Mg_5_Si_8_O_22_(OH)_2_
Locality: Sugar Lake, Cherryville, British Columbia, Canada
Source: Lloyd Twaites
Description: Green bladed crystal fragment
Measured chemistry: (Na_0.34_K_0.06_)(Ca_1.96_Mg_0.01_)Mg_4.94_(Si_7.50_Al_0.46_)O_22_(OH)_2_
x	intensity
50.1401	0.00689719
52.0686	0.00926804
53.9971	0.0103372
55.9255	0.0110703
57.854	0.0105069
59.7825	0.0120417
61.7109	0.0135614
63.6394	0.0166664
65.5679	0.01368
67.4963	0.011976
69.4248	0.0124447
71.3533	0.0125927
73.2817	0.0126856
75.2102	0.0126166
77.1387	0.0134199
79.0671	0.0151789
80.9956	0.015508
82.9241	0.0155298
84.8525	0.0168626
86.781	0.0177246
88.7095	0.0176656
90.6379	0.0175806
92.5664	0.0171545
94.4948	0.0175436
96.4233	0.019652
98.3518	0.0205555
100.28	0.0208309
102.209	0.0227562
104.137	0.0233238
106.066	0.0234123
107.994	0.0234916
109.923	0.0237672
111.851	0.0231604
113.779	0.0226667
115.708	0.022575
117.636	0.0225301
119.565	0.0225025
121.493	0.0228882
123.422	0.0231162
125.35	0.0231386
127.279	0.0231813
129.207	0.0237239
131.136	0.0242649
133.064	0.0253007
134.993	0.0261677
136.921	0.0270486
138.85	0.027777
140.778	0.0275894
142.707	0.0270835
144.635	0.0268607
146.563	0.0270227
148.492	0.0273016
150.42	0.0277188
152.349	0.0281376
154.277	0.0283221
156.206	0.0279259
158.134	0.0261826
160.063	0.0236069
161.991	0.0212748
163.92	0.0199385
165.848	0.0196744
167.777	0.0202509
169.705	0.0215925
171.633	0.0232219
173.562	0.0242412
175.49	0.0252523
177.419	0.0265854
179.347	0.027261
181.276	0.026801
183.204	0.0253948
185.133	0.0251451
187.061	0.0262686
188.99	0.0261396
190.918	0.0248979
192.847	0.0252142
194.775	0.0267923
196.704	0.0279693
198.632	0.0288097
200.56	0.0296683
202.489	0.0307499
204.417	0.0317692
206.346	0.0324403
208.274	0.0333024
210.203	0.034229
212.131	0.0352346
214.06	0.0363621
215.988	0.0372485
217.917	0.0379707
219.845	0.0382288
221.774	0.0385449
223.702	0.0387585
225.631	0.0387711
227.559	0.0392506
229.488	0.0400658
231.416	0.0406963
233.344	0.0409347
235.273	0.0402931
237.201	0.0395305
239.13	0.0385882
241.058	0.0378538
242.987	0.0371211
244.915	0.0360754
246.844	0.0352418
248.772	0.0351605
250.701	0.0349993
252.629	0.0343219
254.558	0.0330856
256.486	0.0321833
258.414	0.0318612
260.343	0.0323437
262.271	0.0333996
264.2	0.0343828
266.128	0.035515
268.057	0.0366181
269.985	0.0376177
271.914	0.0388645
273.842	0.0401619
275.771	0.0418151
277.699	0.043395
279.628	0.0441544
281.556	0.0447536
283.485	0.0452135
285.413	0.0457645
287.341	0.0466056
289.27	0.0475165
291.198	0.0483432
293.127	0.0495309
295.055	0.0505693
296.984	0.0511813
298.912	0.0519126
300.841	0.0525273
302.769	0.053387
304.698	0.0545181
306.626	0.0557748
308.555	0.0571917
310.483	0.0582899
312.411	0.0589967
314.34	0.0590901
316.269	0.058573
318.197	0.0575228
320.125	0.0569769
322.054	0.0572458
323.982	0.057747
325.911	0.0584095
327.839	0.0589317
329.768	0.0593114
331.696	0.0594431
333.625	0.0592302
335.553	0.0588445
337.482	0.0583337
339.41	0.05766
341.339	0.0572453
343.267	0.0567709
345.195	0.0562135
347.124	0.0554356
349.052	0.0545814
350.981	0.0539363
352.909	0.053485
354.838	0.0534174
356.766	0.0534135
358.695	0.0534926
360.623	0.0532917
362.552	0.0524062
364.48	0.051409
366.409	0.0503271
368.337	0.0493825
370.265	0.0492535
372.194	0.0499213
374.122	0.0505524
376.051	0.0506577
377.979	0.0500513
379.908	0.0497127
381.836	0.0506048
383.765	0.051719
385.693	0.0514497
387.622	0.0513541
389.55	0.0519466
391.479	0.051798
393.407	0.0511663
395.336	0.0506816
397.264	0.0506169
399.192	0.0506233
401.121	0.0507313
403.049	0.0507281
404.978	0.0505475
406.906	0.050423
408.835	0.0508268
410.763	0.0512973
412.692	0.0520642
414.62	0.0527849
416.549	0.0528293
418.477	0.0525944
420.406	0.0526432
422.334	0.0523445
424.262	0.0521363
426.191	0.0524087
428.12	0.0532751
430.048	0.0546512
431.976	0.0561532
433.905	0.0579182
435.833	0.0599393
437.762	0.0613913
439.69	0.0628922
441.619	0.0644385
443.547	0.0657256
445.476	0.0666967
447.404	0.0673819
449.333	0.0675442
451.261	0.0676134
453.19	0.0676441
455.118	0.0673191
457.046	0.0671943
458.975	0.0677501
460.903	0.0679218
462.832	0.0680045
464.76	0.06822
466.689	0.0683567
468.617	0.0680061
470.546	0.0674591
472.474	0.0667144
474.403	0.0658477
476.331	0.0648273
478.26	0.0637633
480.188	0.062648
482.116	0.0613113
484.045	0.0598048
485.974	0.0585347
487.902	0.0575245
489.83	0.0567748
491.759	0.0564072
493.687	0.0561202
495.616	0.0563377
497.544	0.0568637
499.473	0.0576283
501.401	0.0586072
503.33	0.0596004
505.258	0.0608343
507.187	0.0620635
509.115	0.0618719
511.043	0.060613
512.972	0.0595769
514.9	0.0585874
516.829	0.0575933
518.757	0.0565932
520.686	0.055439
522.614	0.054637
524.543	0.0539266
526.471	0.0534816
528.4	0.053207
530.328	0.0530103
532.257	0.0529136
534.185	0.052522
536.114	0.0521907
538.042	0.0515136
539.971	0.0503444
541.899	0.049256
543.827	0.0481371
545.756	0.04668
547.684	0.0457417
549.613	0.0445251
551.541	0.0423618
553.47	0.0405692
555.398	0.0390979
557.327	0.037721
559.255	0.0362433
561.184	0.0350064
563.112	0.0339234
565.041	0.0330819
566.969	0.0325957
568.898	0.0317344
570.826	0.0311143
572.755	0.0305749
574.683	0.0299829
576.611	0.0296293
578.54	0.029138
580.468	0.0287541
582.397	0.0287096
584.325	0.0284352
586.254	0.027859
588.182	0.0273979
590.111	0.0272208
592.039	0.0272228
593.968	0.0272656
595.896	0.02713
597.824	0.0267513
599.753	0.0264394
601.682	0.026178
603.61	0.0260115
605.538	0.0254658
607.467	0.0251771
609.395	0.0253452
611.324	0.0255077
613.252	0.0255693
615.181	0.0257943
617.109	0.0266143
619.038	0.0269809
620.966	0.0271662
622.894	0.0280021
624.823	0.0298536
626.751	0.0321805
628.68	0.0344459
630.608	0.0363456
632.537	0.0375591
634.465	0.0380643
636.394	0.0384459
638.322	0.0385583
640.251	0.0388478
642.179	0.0395692
644.108	0.0398227
646.036	0.0394566
647.965	0.0393189
649.893	0.0395844
651.822	0.039982
653.75	0.0405058
655.678	0.041308
657.607	0.0417434
659.535	0.0421084
661.464	0.0431433
663.392	0.044118
665.321	0.044769
667.249	0.044949
669.178	0.0448506
671.106	0.0447407
673.035	0.0447463
674.963	0.0448609
676.892	0.0449884
678.82	0.0452007
680.749	0.0458789
682.677	0.0463174
684.606	0.0461261
686.534	0.0462174
688.462	0.0465039
690.391	0.045938
692.319	0.0451406
694.248	0.0445441
696.176	0.0436653
698.105	0.0435095
700.033	0.0428734
