Measurement: Infrared, Infrared Data Processed
Mineral: Tremolite
Rruff sample: R050173
Ideal chemistry: [box]Ca_2_Mg_5_Si_8_O_22_(OH)_2_
Locality: Fort Dauphin, Madagascar
Source: Marcus Origlieri
Description: Mass of colorless acicular crystals
Measured chemistry: [box]Ca_2.00_Mg_5.00_Si_8.00_O_22_(OH)_2_
x	intensity
50.1401	0.00743488
52.0686	0.0102447
53.9971	0.0108854
55.9255	0.0133471
57.854	0.0164998
59.7825	0.0171711
61.7109	0.0124823
63.6394	0.0145177
65.5679	0.01562
67.4963	0.0133032
69.4248	0.0136289
71.3533	0.0156813
73.2817	0.0172082
75.2102	0.0167198
77.1387	0.0169497
79.0671	0.0188808
80.9956	0.0197807
82.9241	0.0206249
84.8525	0.0216792
86.781	0.0217661
88.7095	0.0223698
90.6379	0.0226888
92.5664	0.0230129
94.4948	0.0227052
96.4233	0.0236607
98.3518	0.0250605
100.28	0.0254283
102.209	0.0262574
104.137	0.0273261
106.066	0.0279816
107.994	0.029435
109.923	0.0306317
111.851	0.0307273
113.779	0.031667
115.708	0.033303
117.636	0.0339194
119.565	0.0346627
121.493	0.0358901
123.422	0.037475
125.35	0.0406089
127.279	0.0425689
129.207	0.0442515
131.136	0.0481924
133.064	0.0524429
134.993	0.0554523
136.921	0.0583661
138.85	0.0605905
140.778	0.0612165
142.707	0.0597982
144.635	0.0558571
146.563	0.0506775
148.492	0.048652
150.42	0.0513321
152.349	0.0565778
154.277	0.060765
156.206	0.0627828
158.134	0.0582189
160.063	0.0472098
161.991	0.0370596
163.92	0.032125
165.848	0.0315656
167.777	0.0333102
169.705	0.0358448
171.633	0.0387461
173.562	0.0426747
175.49	0.047704
177.419	0.0538794
179.347	0.060189
181.276	0.0589804
183.204	0.0501706
185.133	0.0468177
187.061	0.0518829
188.99	0.0554612
190.918	0.0463963
192.847	0.0388359
194.775	0.0400641
196.704	0.0429299
198.632	0.0455802
200.56	0.0482347
202.489	0.0515509
204.417	0.0535659
206.346	0.0558371
208.274	0.0588079
210.203	0.0618241
212.131	0.0648649
214.06	0.0690012
215.988	0.073816
217.917	0.0773878
219.845	0.0762003
221.774	0.0743489
223.702	0.0776989
225.631	0.0802964
227.559	0.0742951
229.488	0.0707184
231.416	0.0754159
233.344	0.0821558
235.273	0.086037
237.201	0.0850472
239.13	0.0804303
241.058	0.0772225
242.987	0.0745158
244.915	0.0673112
246.844	0.0600305
248.772	0.0593857
250.701	0.064126
252.629	0.0673772
254.558	0.0604579
256.486	0.0534176
258.414	0.053103
260.343	0.056067
262.271	0.0597432
264.2	0.0623563
266.128	0.0643439
268.057	0.0667647
269.985	0.0699541
271.914	0.0734588
273.842	0.0770425
275.771	0.081597
277.699	0.0869666
279.628	0.0910706
281.556	0.0909104
283.485	0.0877224
285.413	0.0864941
287.341	0.0860671
289.27	0.0836427
291.198	0.0829173
293.127	0.085594
295.055	0.0903078
296.984	0.0954223
298.912	0.100395
300.841	0.103842
302.769	0.101513
304.698	0.0964324
306.626	0.096322
308.555	0.100206
310.483	0.105417
312.411	0.110117
314.34	0.113649
316.269	0.113148
318.197	0.107152
320.125	0.0997902
322.054	0.0969284
323.982	0.0982848
325.911	0.101449
327.839	0.105077
329.768	0.108489
331.696	0.111947
333.625	0.115331
335.553	0.117933
337.482	0.118478
339.41	0.11775
341.339	0.11913
343.267	0.122888
345.195	0.12683
347.124	0.129882
349.052	0.1325
350.981	0.133507
352.909	0.133228
354.838	0.133504
356.766	0.134704
358.695	0.133753
360.623	0.129972
362.552	0.12503
364.48	0.118822
366.409	0.112793
368.337	0.111522
370.265	0.11532
372.194	0.119915
374.122	0.121614
376.051	0.118375
377.979	0.112476
379.908	0.110134
381.836	0.113639
383.765	0.120909
385.693	0.128923
387.622	0.135204
389.55	0.137239
391.479	0.133848
393.407	0.129321
395.336	0.128564
397.264	0.130437
399.192	0.130763
401.121	0.127506
403.049	0.122037
404.978	0.117856
406.906	0.118967
408.835	0.126057
410.763	0.135386
412.692	0.142978
414.62	0.148005
416.549	0.15045
418.477	0.15024
420.406	0.146651
422.334	0.140998
424.262	0.135959
426.191	0.135545
428.12	0.140295
430.048	0.147885
431.976	0.156045
433.905	0.163665
435.833	0.170151
437.762	0.174654
439.69	0.17674
441.619	0.177857
443.547	0.177803
445.476	0.176359
447.404	0.173976
449.333	0.170485
451.261	0.166632
453.19	0.163464
455.118	0.161099
457.046	0.160536
458.975	0.160524
460.903	0.160478
462.832	0.16019
464.76	0.159315
466.689	0.158487
468.617	0.15707
470.546	0.154411
472.474	0.152045
474.403	0.149911
476.331	0.147425
478.26	0.14488
480.188	0.14201
482.116	0.138067
484.045	0.134252
485.974	0.132109
487.902	0.131474
489.83	0.131562
491.759	0.13204
493.687	0.132786
495.616	0.133311
497.544	0.133269
499.473	0.133324
501.401	0.134837
503.33	0.137909
505.258	0.141255
507.187	0.141862
509.115	0.139058
511.043	0.134364
512.972	0.128961
514.9	0.124229
516.829	0.120574
518.757	0.117681
520.686	0.115229
522.614	0.113605
524.543	0.113139
526.471	0.113254
528.4	0.112809
530.328	0.110994
532.257	0.10867
534.185	0.106219
536.114	0.103273
538.042	0.100045
539.971	0.097101
541.899	0.094048
543.827	0.0909402
545.756	0.0872769
547.684	0.0831491
549.613	0.0791953
551.541	0.0749621
553.47	0.0708237
555.398	0.0673393
557.327	0.0641298
559.255	0.0615294
561.184	0.0591228
563.112	0.0564502
565.041	0.0542483
566.969	0.0525825
568.898	0.0511441
570.826	0.0498171
572.755	0.0486313
574.683	0.0475164
576.611	0.046766
578.54	0.0461647
580.468	0.0450871
582.397	0.0442141
584.325	0.043625
586.254	0.0432591
588.182	0.0424547
590.111	0.0418045
592.039	0.0414366
593.968	0.0408553
595.896	0.0406669
597.824	0.0403777
599.753	0.0395278
601.682	0.0390897
603.61	0.0391587
605.538	0.0393255
607.467	0.0387089
609.395	0.0381256
611.324	0.0382988
613.252	0.0385665
615.181	0.0381182
617.109	0.0380831
619.038	0.0384877
620.966	0.0387621
622.894	0.0392713
624.823	0.0404447
626.751	0.0421923
628.68	0.0447007
630.608	0.047066
632.537	0.049085
634.465	0.0513547
636.394	0.0543632
638.322	0.0582029
640.251	0.0628661
642.179	0.0667492
644.108	0.0669494
646.036	0.0641974
647.965	0.061572
649.893	0.0601998
651.822	0.0601563
653.75	0.061451
655.678	0.0639673
657.607	0.0676709
659.535	0.0715977
661.464	0.0745173
663.392	0.0751956
665.321	0.0735366
667.249	0.0718304
669.178	0.070635
671.106	0.0699449
673.035	0.0711639
674.963	0.0748082
676.892	0.0805873
678.82	0.0881874
680.749	0.0968046
682.677	0.104178
684.606	0.108007
686.534	0.107152
688.462	0.101688
690.391	0.093743
692.319	0.0854438
694.248	0.0788046
696.176	0.074825
698.105	0.0717898
700.033	0.0688348
