Measurement: Infrared, Infrared Data Processed
Mineral: Tremolite
Rruff sample: R050167
Ideal chemistry: [box]Ca_2_Mg_5_Si_8_O_22_(OH)_2_
Locality: Hunza Valley, Afghanistan
Source: Marcus Origlieri
Description: Green tabular crystals
Measured chemistry: ([box]_0.90_Na_0.10_)(Ca_0.98_Mg_0.01_Fe^2+^_0.01_)_2_(Mg_0.94_Al_0.06_)_5_(Si_0.95_Al_0.05_)_8_O_22_((OH)_0.98_F_0.02_)_2_
x	intensity
399.193	0
408.835	0.257046
418.477	0.278417
428.12	0.261952
437.762	0.318508
447.404	0.305905
457.047	0.279091
466.689	0.25126
476.331	0.212085
485.974	0.185615
495.616	0.187853
505.258	0.198098
514.901	0.164907
524.543	0.147179
534.185	0.137616
543.828	0.10978
553.47	0.0746594
563.112	0.0527733
572.755	0.0372957
582.397	0.0284373
592.039	0.0232699
601.682	0.0213452
611.324	0.0228941
620.966	0.0256227
630.609	0.0311101
640.251	0.0493633
649.893	0.0558314
659.536	0.0674798
669.178	0.069794
678.82	0.0809302
688.463	0.0867887
698.105	0.0605264
707.747	0.0508694
717.39	0.0481229
727.032	0.0521561
736.674	0.0575357
746.317	0.0764418
755.959	0.12003
765.601	0.0846299
775.244	0.0523296
784.886	0.0483475
794.528	0.0478054
804.171	0.0484218
813.813	0.0548481
823.455	0.0592447
833.098	0.0697981
842.74	0.0840105
852.382	0.0972542
862.025	0.11008
871.667	0.134935
881.309	0.179519
890.952	0.226984
900.594	0.275224
910.236	0.337904
919.879	0.355376
929.521	0.303796
939.163	0.345897
948.806	0.385374
958.448	0.367922
968.09	0.335344
977.733	0.312816
987.375	0.299197
997.017	0.253828
1006.66	0.203408
1016.3	0.16827
1025.94	0.138368
1035.59	0.137496
1045.23	0.135892
1054.87	0.133969
1064.51	0.128088
1074.16	0.112449
1083.8	0.100165
1093.44	0.107403
1103.08	0.10948
1112.72	0.0958514
1122.37	0.0720665
1132.01	0.0565353
1141.65	0.0337107
1151.3	0.0178545
1160.94	0.00958263
1170.58	0.00679429
1180.22	0.00545566
1189.86	0.0045331
1199.51	0.00408058
1209.15	0.0034121
1218.79	0.00278248
1228.43	0.00298279
1238.08	0.00279043
1247.72	0.00234098
1257.36	0.0020671
1267	0.00192785
1276.64	0.00196769
1286.29	0.00223803
1295.93	0.00214033
1305.57	0.00209545
1315.21	0.00217953
1324.86	0.00211305
1334.5	0.00205761
1344.14	0.00286258
1353.78	0.00274359
1363.43	0.00341829
1373.07	0.00308941
1382.71	0.00379145
1392.35	0.00400835
1401.99	0.00518427
1411.64	0.00647556
1421.28	0.00728248
1430.92	0.00850383
1440.57	0.00871682
1450.21	0.00933284
1459.85	0.0104654
1469.49	0.00916043
1479.13	0.00855767
1488.78	0.00774453
1498.42	0.00694092
1508.06	0.008294
1517.7	0.00643402
1527.35	0.00497392
1536.99	0.00313575
1546.63	0.00533633
1556.27	0.00253837
1565.91	0.00522942
1575.56	0.00253896
1585.2	0.00478534
1594.84	0.00550839
1604.48	0.00558744
1614.13	0.00449891
1623.77	0.00632232
1633.41	0.00388149
1643.05	0.0048583
1652.7	0.00113931
1662.34	0.00383694
1671.98	0.00440279
1681.62	0.00313396
1691.27	0.00362733
1700.91	0.00661513
1710.55	0.00323835
1720.19	0.00276214
1729.84	0.00258101
1739.48	0.00146092
1749.12	0.00169548
1758.76	0.00198275
1768.4	0.00198517
1778.05	0.00133613
1787.69	0.00145324
1797.33	0.00140753
1806.97	0.00141671
1816.62	0.000703894
1826.26	0.00139597
1835.9	0.000180099
1845.54	0.00180766
1855.18	0.000107621
1864.83	-4.68206e-05
1874.47	0.000256287
1884.11	-0.000892467
1893.75	-0.00177088
1903.4	-0.00202751
1913.04	-0.00151046
1922.68	-0.00324338
1932.32	-0.00400806
1941.97	-0.00343768
1951.61	-0.00599095
1961.25	-0.00566922
1970.89	-0.00838562
1980.54	-0.00347915
1990.18	-0.00360875
1999.82	-0.00612392
2009.46	-0.00651258
2019.11	-0.00536136
2028.75	-0.00842379
2038.39	-0.00341869
2048.03	-0.000621643
2057.67	-0.00115366
2067.32	-0.00107205
2076.96	-0.00174127
2086.6	-0.000119422
2096.24	-0.000986102
2105.89	-0.00165057
2115.53	-0.00126082
2125.17	-0.00280722
2134.81	-0.00283626
2144.45	-0.00496641
2154.1	-0.00989529
2163.74	-0.00162863
2173.38	-0.000923041
2183.02	-0.00280256
2192.67	-0.000954323
2202.31	-6.28188e-05
2211.95	0.000583306
2221.59	-0.000733882
2231.24	0.000680499
2240.88	0.0021254
2250.52	0.00137382
2260.16	0.00190524
2269.8	0.00299621
2279.45	0.00438415
2289.09	0.00422322
2298.73	0.00448945
2308.38	0.00418814
2318.02	0.00527765
2327.66	0.00485778
2337.3	0.00511235
2346.94	0.00428039
2356.59	0.00491446
2366.23	0.00409918
2375.87	0.00414857
2385.51	0.00459139
2395.16	0.00470917
2404.8	0.00398025
2414.44	0.00488878
2424.08	0.00485034
2433.72	0.00465259
2443.37	0.00537577
2453.01	0.00677381
2462.65	0.00471232
2472.29	0.00474432
2481.94	0.00457456
2491.58	0.00530673
2501.22	0.00460914
2510.86	0.00544231
2520.51	0.00509863
2530.15	0.00428735
2539.79	0.00497088
2549.43	0.00617496
2559.07	0.00465054
2568.72	0.00612208
2578.36	0.00585592
2588	0.00548013
2597.64	0.00708438
2607.29	0.00684361
2616.93	0.00636347
2626.57	0.00639179
2636.21	0.00767487
2645.86	0.00751777
2655.5	0.00685983
2665.14	0.00678833
2674.78	0.00614568
2684.43	0.00643646
2694.07	0.00692372
2703.71	0.00527831
2713.35	0.00728276
2722.99	0.00637026
2732.64	0.00708505
2742.28	0.00613124
2751.92	0.00703006
2761.56	0.00703111
2771.21	0.00675032
2780.85	0.00792343
2790.49	0.00725993
2800.13	0.00727463
2809.78	0.00732598
2819.42	0.00767472
2829.06	0.00717074
2838.7	0.00795994
2848.34	0.00862661
2857.99	0.00918669
2867.63	0.00765383
2877.27	0.00873162
2886.91	0.00806007
2896.56	0.00889178
2906.2	0.00960593
2915.84	0.0114904
2925.48	0.0107381
2935.13	0.00877387
2944.77	0.00848006
2954.41	0.00920935
2964.05	0.00868396
2973.7	0.00792934
2983.34	0.00889807
2992.98	0.00786118
3002.62	0.00823937
3012.26	0.0095281
3021.91	0.00765879
3031.55	0.00868841
3041.19	0.00942029
3050.83	0.00930129
3060.48	0.00906079
3070.12	0.00892923
3079.76	0.00919346
3089.4	0.0080478
3099.05	0.00945097
3108.69	0.0103144
3118.33	0.00913592
3127.97	0.00976073
3137.61	0.0105496
3147.26	0.0111007
3156.9	0.0119737
3166.54	0.0122484
3176.18	0.0115433
3185.83	0.0117117
3195.47	0.0125224
3205.11	0.0121492
3214.75	0.0123357
3224.4	0.0119863
3234.04	0.0114686
3243.68	0.0133156
3253.32	0.0129368
3262.97	0.0117988
3272.61	0.0143427
3282.25	0.0122761
3291.89	0.0135221
3301.53	0.0127664
3311.18	0.0141159
3320.82	0.0132834
3330.46	0.0141099
3340.1	0.0137755
3349.75	0.0144912
3359.39	0.0145676
3369.03	0.0148162
3378.67	0.0144094
3388.32	0.0146412
3397.96	0.0132767
3407.6	0.0142751
3417.24	0.0141629
3426.89	0.0154174
3436.53	0.0137118
3446.17	0.014306
3455.81	0.0142847
3465.45	0.0124637
3475.1	0.0144931
3484.74	0.0136959
3494.38	0.0144265
3504.02	0.0135949
3513.67	0.0136437
3523.31	0.0116815
3532.95	0.0114035
3542.59	0.0108974
3552.24	0.0132427
3561.88	0.0123347
3571.52	0.0120455
3581.16	0.010925
3590.8	0.00838753
3600.45	0.0117128
3610.09	0.00988156
3619.73	0.00933756
3629.37	0.00797455
3639.02	0.0107697
3648.66	0.00675317
3658.3	0.0150408
3667.94	0.0133126
3677.59	0.0121431
3687.23	0.00312443
3696.87	0.00988845
3706.51	0.0103186
3716.16	0.00794657
3725.8	0.0087695
3735.44	0.00295717
3745.08	0.00263505
3754.72	0.00597511
3764.37	0.00794907
3774.01	0.0105052
3783.65	0.0117418
3793.29	0.0109094
3802.94	0.00450305
3812.58	0.00932173
3822.22	0.00755782
3831.86	0.00853151
3841.51	0.00773274
3851.15	0.00318119
3860.79	0.0077307
3870.43	0.00653738
3880.07	0.00830857
3889.72	0.00822657
3899.36	0.00995243
3909	0.00795264
3918.64	0.00977181
3928.29	0.0104833
3937.93	0.0124141
3947.57	0.00894775
3957.21	0.00896216
3966.86	0.0123352
3976.5	0.00713792
3986.14	0.00880511
3995.78	0.0145604
