Measurement: Infrared, Infrared Data Processed
Mineral: Tremolite
Rruff sample: R050173
Ideal chemistry: [box]Ca_2_Mg_5_Si_8_O_22_(OH)_2_
Locality: Fort Dauphin, Madagascar
Source: Marcus Origlieri
Description: Mass of colorless acicular crystals
Measured chemistry: [box]Ca_2.00_Mg_5.00_Si_8.00_O_22_(OH)_2_
x	intensity
374.123	0.200942
383.765	0.210836
393.407	0.254132
403.05	0.208554
412.692	0.273414
422.334	0.237662
431.976	0.286403
441.619	0.343696
451.261	0.292326
460.904	0.267424
470.546	0.237965
480.188	0.197323
489.83	0.18098
499.473	0.191923
509.115	0.192258
518.758	0.146303
528.4	0.140744
538.042	0.120094
547.684	0.0847865
557.327	0.0546464
566.969	0.0372421
576.611	0.025987
586.254	0.0209414
595.896	0.0196166
605.538	0.0201038
615.181	0.0198596
624.823	0.0218357
634.466	0.0306946
644.108	0.054237
653.75	0.0437508
663.393	0.0671612
673.035	0.0570259
682.677	0.117308
692.319	0.0737701
701.962	0.0362104
711.604	0.0308316
721.246	0.0395636
730.889	0.0399065
740.531	0.0571525
750.173	0.093311
759.816	0.155805
769.458	0.0586819
779.101	0.0471169
788.743	0.042371
798.385	0.0505735
808.028	0.0373062
817.67	0.03203
827.312	0.0345825
836.955	0.0409582
846.597	0.0523445
856.239	0.065275
865.881	0.0875862
875.524	0.122452
885.166	0.153938
894.808	0.217076
904.451	0.304139
914.093	0.39628
923.736	0.349196
933.378	0.277456
943.02	0.383866
952.663	0.413292
962.305	0.365129
971.947	0.329646
981.59	0.324112
991.232	0.31601
1000.87	0.261483
1010.52	0.197477
1020.16	0.156688
1029.8	0.135675
1039.44	0.173692
1049.09	0.169898
1058.73	0.169682
1068.37	0.155934
1078.01	0.136205
1087.65	0.131617
1097.3	0.146157
1106.94	0.14412
1116.58	0.118024
1126.22	0.0903373
1135.87	0.062561
1145.51	0.0405611
1155.15	0.0284322
1164.79	0.0264066
1174.44	0.0222594
1184.08	0.0198989
1193.72	0.0175231
1203.36	0.0145269
1213.01	0.011192
1222.65	0.00873777
1232.29	0.00769434
1241.93	0.00715503
1251.58	0.00630174
1261.22	0.00596882
1270.86	0.00587655
1280.5	0.00577837
1290.14	0.00555121
1299.79	0.00538905
1309.43	0.00524934
1319.07	0.00523169
1328.71	0.00545552
1338.36	0.00605289
1348	0.00629462
1357.64	0.00696007
1367.28	0.00769027
1376.92	0.0083939
1386.57	0.0096614
1396.21	0.0116332
1405.85	0.0136749
1415.49	0.0166749
1425.14	0.0196055
1434.78	0.0215856
1444.42	0.0227049
1454.06	0.02393
1463.71	0.0240912
1473.35	0.0235966
1482.99	0.0223207
1492.63	0.0209889
1502.28	0.0190566
1511.92	0.0165933
1521.56	0.0147327
1531.2	0.0123024
1540.85	0.0118394
1550.49	0.0102295
1560.13	0.011006
1569.77	0.00995661
1579.41	0.0101003
1589.06	0.00975838
1598.7	0.0102201
1608.34	0.0101051
1617.98	0.0105
1627.63	0.00977015
1637.27	0.00942056
1646.91	0.00916996
1656.55	0.00814707
1666.19	0.00766359
1675.84	0.00776535
1685.48	0.00783172
1695.12	0.00790135
1704.77	0.00674308
1714.41	0.00643933
1724.05	0.00550504
1733.69	0.00571407
1743.33	0.00463312
1752.98	0.00479368
1762.62	0.00489934
1772.26	0.00545569
1781.9	0.0049701
1791.55	0.00476769
1801.19	0.00494123
1810.83	0.0045234
1820.47	0.00455135
1830.12	0.00428739
1839.76	0.00388468
1849.4	0.00400542
1859.04	0.00459336
1868.68	0.00475489
1878.33	0.00475637
1887.97	0.00352155
1897.61	0.00350728
1907.25	0.00389362
1916.9	0.00357722
1926.54	0.00284158
1936.18	0.00318999
1945.82	0.00316769
1955.46	0.00217988
1965.11	0.00255908
1974.75	0.0020838
1984.39	0.0041914
1994.04	0.00452706
2003.68	0.00244014
2013.32	0.0052667
2022.96	0.00313004
2032.6	0.00548134
2042.25	0.0049567
2051.89	0.0067328
2061.53	0.00534893
2071.17	0.00511309
2080.82	0.00469207
2090.46	0.00420661
2100.1	0.00537437
2109.74	0.00494454
2119.39	0.00480058
2129.03	0.00373783
2138.67	0.00390726
2148.31	0.00438004
2157.95	0.00420946
2167.6	0.00719676
2177.24	0.00262356
2186.88	0.00551859
2196.52	0.00488139
2206.17	0.00488425
2215.81	0.00305321
2225.45	0.00522482
2235.09	0.00437236
2244.74	0.00452234
2254.38	0.00395265
2264.02	0.00467973
2273.66	0.0056196
2283.3	0.00602493
2292.95	0.00597493
2302.59	0.00582489
2312.23	0.00594999
2321.87	0.00650469
2331.52	0.00560394
2341.16	0.0059907
2350.8	0.00526459
2360.44	0.00561147
2370.09	0.00586245
2379.73	0.00522577
2389.37	0.00536348
2399.01	0.00491915
2408.66	0.00531464
2418.3	0.0052329
2427.94	0.00553588
2437.58	0.00534126
2447.22	0.00596664
2456.87	0.00596967
2466.51	0.0061882
2476.15	0.00555154
2485.79	0.00621501
2495.44	0.00546462
2505.08	0.00520889
2514.72	0.00542521
2524.36	0.00469145
2534.01	0.00526433
2543.65	0.00520273
2553.29	0.00515004
2562.93	0.00587918
2572.57	0.00543913
2582.22	0.00531863
2591.86	0.00554372
2601.5	0.00531647
2611.14	0.00552806
2620.79	0.00566927
2630.43	0.00566633
2640.07	0.00577391
2649.71	0.00539522
2659.36	0.00533875
2669	0.00509014
2678.64	0.00508968
2688.28	0.00508855
2697.93	0.00485405
2707.57	0.00550596
2717.21	0.00502563
2726.85	0.0054163
2736.49	0.00550309
2746.14	0.00551724
2755.78	0.00591943
2765.42	0.00590145
2775.06	0.00541613
2784.71	0.00583008
2794.35	0.00579908
2803.99	0.00597758
2813.63	0.00612543
2823.28	0.0064267
2832.92	0.00646184
2842.56	0.00713084
2852.2	0.00834817
2861.84	0.00804278
2871.49	0.00739085
2881.13	0.00698284
2890.77	0.00762769
2900.41	0.00828503
2910.06	0.00835499
2919.7	0.00972274
2929.34	0.00987575
2938.98	0.00834582
2948.62	0.007929
2958.27	0.00693536
2967.91	0.00692783
2977.55	0.00612388
2987.2	0.00666223
2996.84	0.0059088
3006.48	0.00585578
3016.12	0.00612979
3025.76	0.00671025
3035.41	0.00630514
3045.05	0.00654053
3054.69	0.00637504
3064.33	0.00711932
3073.98	0.00656212
3083.62	0.00749273
3093.26	0.00703622
3102.9	0.0067772
3112.55	0.00718361
3122.19	0.007005
3131.83	0.00783925
3141.47	0.00854794
3151.11	0.00831749
3160.76	0.00827807
3170.4	0.00736114
3180.04	0.00863188
3189.68	0.00910228
3199.33	0.00879006
3208.97	0.00795597
3218.61	0.008562
3228.25	0.0087611
3237.9	0.0080735
3247.54	0.00897761
3257.18	0.00862121
3266.82	0.0084448
3276.47	0.00843278
3286.11	0.00895368
3295.75	0.00848289
3305.39	0.00834022
3315.03	0.00885799
3324.68	0.00834239
3334.32	0.00865371
3343.96	0.00975848
3353.6	0.00861092
3363.25	0.00897915
3372.89	0.00826529
3382.53	0.00841615
3392.17	0.00763719
3401.82	0.00820452
3411.46	0.00899813
3421.1	0.00792651
3430.74	0.00762545
3440.39	0.00760207
3450.03	0.00750871
3459.67	0.00739581
3469.31	0.00681584
3478.95	0.00738372
3488.6	0.00728837
3498.24	0.00622343
3507.88	0.00536379
3517.52	0.005893
3527.17	0.00518665
3536.81	0.00498376
3546.45	0.00500218
3556.09	0.00386191
3565.74	0.00484923
3575.38	0.00447904
3585.02	0.00365662
3594.66	0.00303706
3604.3	0.0038112
3613.95	0.00222636
3623.59	0.00237504
3633.23	0.000582141
3642.87	0.000392685
3652.52	0.00150537
3662.16	0.0018288
3671.8	0.0258467
3681.44	-0.000654966
3691.09	-0.000855798
3700.73	-0.00128345
3710.37	-0.000260626
3720.01	-0.00183795
3729.66	-0.00222579
3739.3	-0.000674619
3748.94	6.74413e-05
3758.58	-0.00130794
3768.22	-0.00081965
3777.87	-0.000829207
3787.51	-0.00268596
3797.15	-0.00265241
3806.79	-0.00176623
3816.44	-0.000369539
3826.08	-0.00184361
3835.72	-0.0014868
3845.36	-0.00201189
3855.01	-0.000276229
3864.65	-0.00268802
3874.29	-0.00305493
3883.93	-0.00318774
3893.57	-0.00303643
3903.22	-0.00333988
3912.86	-0.00353142
3922.5	-0.00267679
3932.14	-0.00231418
3941.79	-0.00330788
3951.43	-0.0029622
3961.07	-0.00306718
3970.71	-0.0017302
3980.36	-0.00315004
3990	-0.00355124
3999.64	-0.00352765
