Measurement: Infrared, Infrared Data Processed
Mineral: Tremolite
Rruff sample: R050498
Ideal chemistry: [box]Ca_2_Mg_5_Si_8_O_22_(OH)_2_
Locality: Inyo County, California, USA
Source: California Institute of Technology
Description: Group of pale blue parallel acicular crystals
Measured chemistry: (Ca_1.95_Na_0.05_)_Σ=2_(Mg_4.75_Fe^3+^_0.13_Fe^2+^_0.07_Mn_0.05_)_Σ=5_(Si_7.92_Al_0.08_)_Σ=8_O_22_(OH)_2_; OH estimated by charge balance
x	intensity
395.336	0.136115
404.978	0.134116
414.62	0.149929
424.263	0.127356
433.905	0.171154
443.547	0.200466
453.19	0.179814
462.832	0.171736
472.474	0.154058
482.117	0.124263
491.759	0.1084
501.401	0.123007
511.044	0.128114
520.686	0.100228
530.328	0.0982127
539.971	0.0866689
549.613	0.0569974
559.255	0.0358659
568.898	0.0221396
578.54	0.0140369
588.182	0.0105212
597.825	0.00954528
607.467	0.00969796
617.109	0.0101087
626.752	0.0115899
636.394	0.0175606
646.036	0.0265027
655.679	0.0291081
665.321	0.0323884
674.963	0.0297163
684.606	0.047038
694.248	0.0284806
703.89	0.0189159
713.533	0.0171776
723.175	0.0220317
732.817	0.0220896
742.46	0.0319534
752.102	0.0590103
761.744	0.0521317
771.387	0.0190424
781.029	0.0148141
790.671	0.0149818
800.314	0.0159617
809.956	0.0173725
819.598	0.0198897
829.241	0.0233903
838.883	0.0285658
848.525	0.037046
858.168	0.0425724
867.81	0.0532697
877.452	0.0690758
887.095	0.0872488
896.737	0.11103
906.379	0.144377
916.022	0.175634
925.664	0.147717
935.306	0.138217
944.949	0.181462
954.591	0.185312
964.233	0.171833
973.876	0.16496
983.518	0.166607
993.16	0.165649
1002.8	0.141003
1012.45	0.105292
1022.09	0.0745271
1031.73	0.0667708
1041.37	0.0759952
1051.01	0.0732898
1060.66	0.0761354
1070.3	0.0738207
1079.94	0.0641862
1089.58	0.0618274
1099.23	0.0656257
1108.87	0.0637785
1118.51	0.0509874
1128.15	0.0395444
1137.8	0.0262392
1147.44	0.0136556
1157.08	0.00667054
1166.72	0.00409604
1176.37	0.00299825
1186.01	0.0023833
1195.65	0.00204861
1205.29	0.00185459
1214.93	0.00155673
1224.58	0.00136932
1234.22	0.00128903
1243.86	0.00138902
1253.5	0.00120715
1263.15	0.00102027
1272.79	0.00120005
1282.43	0.0012744
1292.07	0.00124471
1301.71	0.00119613
1311.36	0.00128516
1321	0.00121397
1330.64	0.00128953
1340.28	0.00154646
1349.93	0.00174234
1359.57	0.00202177
1369.21	0.00232463
1378.85	0.00282408
1388.5	0.00373133
1398.14	0.00436312
1407.78	0.00462361
1417.42	0.00585042
1427.07	0.00572392
1436.71	0.00646427
1446.35	0.00612375
1455.99	0.00725861
1465.63	0.00678887
1475.28	0.00672068
1484.92	0.00577569
1494.56	0.00522317
1504.2	0.00466353
1513.85	0.00361692
1523.49	0.00334051
1533.13	0.0028196
1542.77	0.00299644
1552.42	0.0023295
1562.06	0.00225058
1571.7	0.00185945
1581.34	0.00189954
1590.98	0.00177253
1600.63	0.00193654
1610.27	0.00192152
1619.91	0.00188842
1629.55	0.00195003
1639.2	0.00185074
1648.84	0.00245186
1658.48	0.00197164
1668.12	0.00249527
1677.77	0.00231984
1687.41	0.00287536
1697.05	0.00339381
1706.69	0.0027232
1716.34	0.00347236
1725.98	0.00245205
1735.62	0.00279056
1745.26	0.0021569
1754.9	0.00148132
1764.55	0.00167617
1774.19	0.00156191
1783.83	0.00114777
1793.47	0.00144267
1803.12	0.000859713
1812.76	0.000749797
1822.4	0.000600119
1832.04	0.000384897
1841.69	0.000297628
1851.33	0.000277079
1860.97	0.000217374
1870.61	0.000295362
1880.26	2.62068e-05
1889.9	-0.000585292
1899.54	-0.000768779
1909.18	-0.00116054
1918.82	-0.000192662
1928.47	-0.000484312
1938.11	-0.000681926
1947.75	-0.00207378
1957.39	-0.00178043
1967.04	-0.00158491
1976.68	-0.00265585
1986.32	-0.00142145
1995.96	-0.00139474
2005.61	-0.00223929
2015.25	1.59757e-05
2024.89	-5.9423e-05
2034.53	0.000519869
2044.17	-0.000273211
2053.82	0.00136542
2063.46	0.00049244
2073.1	-0.000386945
2082.74	0.000238921
2092.39	0.000765626
2102.03	0.000165187
2111.67	-0.00027707
2121.31	0.00036037
2130.96	0.000794793
2140.6	0.00136489
2150.24	0.000485416
2159.88	0.000865664
2169.53	5.25662e-05
2179.17	0.00102909
2188.81	0.000244311
2198.45	0.000361486
2208.09	-0.000579715
2217.74	0.00116741
2227.38	0.000479363
2237.02	0.00152724
2246.66	0.000491933
2256.31	0.00107631
2265.95	0.00153068
2275.59	0.00221889
2285.23	0.000962975
2294.88	0.00172093
2304.52	0.00207403
2314.16	0.00188511
2323.8	0.00236618
2333.45	0.00330812
2343.09	0.00380281
2352.73	0.00314467
2362.37	0.00499309
2372.01	0.00332725
2381.66	0.00191177
2391.3	0.00181899
2400.94	0.00152705
2410.58	0.00201185
2420.23	0.00137821
2429.87	0.00169553
2439.51	0.00172361
2449.15	0.00100587
2458.8	0.00202172
2468.44	0.00241063
2478.08	0.00168739
2487.72	0.00174081
2497.36	0.00181243
2507.01	0.00248215
2516.65	0.00215366
2526.29	0.00209328
2535.93	0.00166089
2545.58	0.00179069
2555.22	0.00213594
2564.86	0.00187326
2574.5	0.00173299
2584.14	0.00154156
2593.79	0.00155781
2603.43	0.00211595
2613.07	0.00184556
2622.72	0.00208069
2632.36	0.00219625
2642	0.00188396
2651.64	0.0023626
2661.28	0.00215757
2670.93	0.00226408
2680.57	0.00243735
2690.21	0.00235851
2699.85	0.00219892
2709.5	0.00265315
2719.14	0.00250244
2728.78	0.00248406
2738.42	0.00246094
2748.07	0.00287727
2757.71	0.00258801
2767.35	0.00249399
2776.99	0.00276154
2786.63	0.00282132
2796.28	0.00319799
2805.92	0.00304444
2815.56	0.00311479
2825.2	0.00342059
2834.85	0.00335684
2844.49	0.00342473
2854.13	0.00366105
2863.77	0.003775
2873.41	0.00400169
2883.06	0.00356513
2892.7	0.00360717
2902.34	0.00401906
2911.99	0.00380744
2921.63	0.00442642
2931.27	0.0045364
2940.91	0.00408902
2950.55	0.00467614
2960.2	0.00440949
2969.84	0.0034753
2979.48	0.00367552
2989.12	0.00357922
2998.77	0.00396213
3008.41	0.00361104
3018.05	0.00410942
3027.69	0.0032987
3037.34	0.00426524
3046.98	0.00397465
3056.62	0.00359354
3066.26	0.00401249
3075.9	0.00331862
3085.55	0.00376218
3095.19	0.00395905
3104.83	0.0041799
3114.47	0.00390544
3124.12	0.00404117
3133.76	0.00365368
3143.4	0.00405856
3153.04	0.00376863
3162.68	0.00402763
3172.33	0.00384469
3181.97	0.0045448
3191.61	0.00367696
3201.26	0.00368785
3210.9	0.00415163
3220.54	0.00377213
3230.18	0.0038536
3239.82	0.00330064
3249.47	0.00439525
3259.11	0.00365739
3268.75	0.0036035
3278.39	0.00389186
3288.04	0.00321711
3297.68	0.00345337
3307.32	0.00272582
3316.96	0.0032461
3326.61	0.00369264
3336.25	0.0029999
3345.89	0.00358882
3355.53	0.00352863
3365.17	0.00315412
3374.82	0.00363268
3384.46	0.00371412
3394.1	0.00330797
3403.74	0.00330451
3413.39	0.00351284
3423.03	0.00345765
3432.67	0.0032172
3442.31	0.00385563
3451.95	0.00436065
3461.6	0.00390017
3471.24	0.00482139
3480.88	0.00364817
3490.53	0.0035025
3500.17	0.00354651
3509.81	0.00440268
3519.45	0.00340762
3529.09	0.003209
3538.74	0.00248891
3548.38	0.00250174
3558.02	0.00266587
3567.66	0.00318465
3577.31	0.00241423
3586.95	0.00335487
3596.59	0.00357986
3606.23	0.00264943
3615.88	0.0022637
3625.52	0.00227244
3635.16	0.00214078
3644.8	0.00248249
3654.44	0.00254126
3664.09	0.00259362
3673.73	0.0131778
3683.37	0.00180348
3693.01	0.000982815
3702.66	0.00182237
3712.3	0.00295541
3721.94	0.000587598
3731.58	0.00233991
3741.22	0.00288141
3750.87	0.0034552
3760.51	0.0012614
3770.15	0.00245528
3779.8	0.00185768
3789.44	0.00100232
3799.08	0.00161192
3808.72	0.00212122
3818.36	0.00214115
3828.01	0.00173231
3837.65	0.00347558
3847.29	0.00167239
3856.93	0.00311957
3866.58	0.00135897
3876.22	0.00149017
3885.86	0.00233718
3895.5	0.00189394
3905.14	0.00172201
3914.79	0.00127674
3924.43	0.00141662
3934.07	0.000818604
3943.71	0.00148942
3953.36	0.00183315
3963	0.00115761
3972.64	0.000759114
3982.28	0.000950398
3991.93	0.000647031
