Measurement: Infrared, Infrared Data Processed
Mineral: Trilithionite
Rruff sample: R040101
Ideal chemistry: KLi_1.5_Al_1.5_(Si_3_Al)O_10_F_2_
Locality: Zambezi Region, Mozambique
Source: University of Arizona Mineral Museum
Description: Aggregate of purple hexagonal plates, polytype is 2M1
Measured chemistry: (K_0.84_Li_0.13_Na_0.02_)(Li_0.54_Al_0.44_Mn_0.02_)_3_(Si_0.82_Al_0.18_)_4_O_10_F_2.00_
x	intensity
399.193	0
408.835	0.237499
418.477	0.249914
428.12	0.260979
437.762	0.277699
447.404	0.273068
457.047	0.297955
466.689	0.317376
476.331	0.30327
485.974	0.267481
495.616	0.239966
505.258	0.249983
514.901	0.26605
524.543	0.277728
534.185	0.247911
543.828	0.201987
553.47	0.157946
563.112	0.121495
572.755	0.0996564
582.397	0.084054
592.039	0.0674192
601.682	0.0532097
611.324	0.0484949
620.966	0.0452904
630.609	0.0398875
640.251	0.0369042
649.893	0.0370813
659.536	0.039707
669.178	0.0447338
678.82	0.0516809
688.463	0.0583359
698.105	0.0619067
707.747	0.064487
717.39	0.0743279
727.032	0.086443
736.674	0.0987242
746.317	0.11108
755.959	0.10646
765.601	0.0899615
775.244	0.0905408
784.886	0.100995
794.528	0.105346
804.171	0.103862
813.813	0.091011
823.455	0.0906878
833.098	0.0904105
842.74	0.0814887
852.382	0.098383
862.025	0.124073
871.667	0.155467
881.309	0.182217
890.952	0.212402
900.594	0.259489
910.236	0.304366
919.879	0.335105
929.521	0.356914
939.163	0.378562
948.806	0.407387
958.448	0.425658
968.09	0.419052
977.733	0.412926
987.375	0.406477
997.017	0.381429
1006.66	0.354629
1016.3	0.334326
1025.94	0.302341
1035.59	0.244885
1045.23	0.184828
1054.87	0.158079
1064.51	0.144933
1074.16	0.127458
1083.8	0.116436
1093.44	0.105074
1103.08	0.0865086
1112.72	0.0676625
1122.37	0.0517359
1132.01	0.0381615
1141.65	0.0246397
1151.3	0.014789
1160.94	0.0110244
1170.58	0.00880181
1180.22	0.00769375
1189.86	0.00656115
1199.51	0.00597405
1209.15	0.0052914
1218.79	0.00485413
1228.43	0.00425222
1238.08	0.00383092
1247.72	0.00385342
1257.36	0.00343978
1267	0.00352014
1276.64	0.00353958
1286.29	0.00323654
1295.93	0.00326617
1305.57	0.00324356
1315.21	0.00322431
1324.86	0.00318346
1334.5	0.00316033
1344.14	0.00339145
1353.78	0.00349405
1363.43	0.0037991
1373.07	0.00352637
1382.71	0.003668
1392.35	0.00348751
1401.99	0.00373576
1411.64	0.00392855
1421.28	0.00395914
1430.92	0.00384542
1440.57	0.00380736
1450.21	0.00407072
1459.85	0.00410804
1469.49	0.00404133
1479.13	0.00383569
1488.78	0.00365002
1498.42	0.00383272
1508.06	0.00413081
1517.7	0.00430943
1527.35	0.00403672
1536.99	0.00441396
1546.63	0.00485542
1556.27	0.00493804
1565.91	0.0048379
1575.56	0.00497708
1585.2	0.00505031
1594.84	0.00516986
1604.48	0.00562242
1614.13	0.00538462
1623.77	0.00609733
1633.41	0.00645377
1643.05	0.00705987
1652.7	0.00693275
1662.34	0.00664527
1671.98	0.00696385
1681.62	0.00738491
1691.27	0.00698743
1700.91	0.00732444
1710.55	0.00711859
1720.19	0.00699067
1729.84	0.00691305
1739.48	0.00619379
1749.12	0.00593666
1758.76	0.00667117
1768.4	0.00685953
1778.05	0.00660472
1787.69	0.00661099
1797.33	0.00656127
1806.97	0.0062326
1816.62	0.00624539
1826.26	0.00605305
1835.9	0.00625189
1845.54	0.00568172
1855.18	0.00566217
1864.83	0.00531277
1874.47	0.0048991
1884.11	0.00485798
1893.75	0.00482415
1903.4	0.00450274
1913.04	0.00377698
1922.68	0.00270369
1932.32	0.00204714
1941.97	0.000767345
1951.61	-0.000174407
1961.25	-0.00250692
1970.89	-0.00424408
1980.54	-0.00248012
1990.18	-0.00193844
1999.82	-0.00229952
2009.46	-0.00336695
2019.11	-0.00302999
2028.75	-0.00503187
2038.39	-0.0022176
2048.03	-0.000166954
2057.67	0.000600109
2067.32	0.00202738
2076.96	0.0030403
2086.6	0.00362949
2096.24	0.00342398
2105.89	0.00506751
2115.53	0.00427234
2125.17	0.00389086
2134.81	0.00292594
2144.45	-0.000607263
2154.1	-0.00287673
2163.74	0.00227143
2173.38	0.00192661
2183.02	0.00597345
2192.67	0.00580109
2202.31	0.00581715
2211.95	0.00585902
2221.59	0.00494724
2231.24	0.00515048
2240.88	0.0060956
2250.52	0.00817404
2260.16	0.00830349
2269.8	0.00849209
2279.45	0.00901047
2289.09	0.00973689
2298.73	0.00994111
2308.38	0.0105974
2318.02	0.0107416
2327.66	0.0105291
2337.3	0.010277
2346.94	0.0106304
2356.59	0.0113697
2366.23	0.0099873
2375.87	0.0100442
2385.51	0.0106961
2395.16	0.00961857
2404.8	0.00988715
2414.44	0.00972314
2424.08	0.0102337
2433.72	0.0106555
2443.37	0.0105406
2453.01	0.0107818
2462.65	0.010797
2472.29	0.0108598
2481.94	0.0106871
2491.58	0.0108662
2501.22	0.0100426
2510.86	0.0109577
2520.51	0.0104233
2530.15	0.00992845
2539.79	0.010458
2549.43	0.0117538
2559.07	0.011334
2568.72	0.0119477
2578.36	0.0111845
2588	0.0118884
2597.64	0.010893
2607.29	0.0123523
2616.93	0.0124221
2626.57	0.0130292
2636.21	0.012858
2645.86	0.0130695
2655.5	0.0127125
2665.14	0.0123538
2674.78	0.0119907
2684.43	0.0115513
2694.07	0.0115984
2703.71	0.0124494
2713.35	0.0124777
2722.99	0.0121383
2732.64	0.0119858
2742.28	0.0129206
2751.92	0.0126839
2761.56	0.0132567
2771.21	0.0124792
2780.85	0.0125407
2790.49	0.0131967
2800.13	0.0130241
2809.78	0.0124112
2819.42	0.0130995
2829.06	0.0146311
2838.7	0.0135299
2848.34	0.0140877
2857.99	0.0140788
2867.63	0.0142523
2877.27	0.0126608
2886.91	0.0136069
2896.56	0.0143943
2906.2	0.0155793
2915.84	0.0151984
2925.48	0.0144364
2935.13	0.0136841
2944.77	0.0146647
2954.41	0.0145644
2964.05	0.01393
2973.7	0.0133911
2983.34	0.0136605
2992.98	0.0142638
3002.62	0.0140676
3012.26	0.0147514
3021.91	0.0142871
3031.55	0.0149994
3041.19	0.0144875
3050.83	0.0143713
3060.48	0.014405
3070.12	0.0148294
3079.76	0.0144208
3089.4	0.0155101
3099.05	0.0164946
3108.69	0.0165015
3118.33	0.0149486
3127.97	0.0156463
3137.61	0.0150686
3147.26	0.0173153
3156.9	0.0158167
3166.54	0.0171727
3176.18	0.0163629
3185.83	0.0178648
3195.47	0.0179228
3205.11	0.0169091
3214.75	0.0167032
3224.4	0.0170601
3234.04	0.0181896
3243.68	0.019005
3253.32	0.0175308
3262.97	0.0185457
3272.61	0.0190101
3282.25	0.018416
3291.89	0.0193013
3301.53	0.0188653
3311.18	0.0177752
3320.82	0.0179554
3330.46	0.0185892
3340.1	0.0184654
3349.75	0.0196049
3359.39	0.0194012
3369.03	0.0193057
3378.67	0.0193751
3388.32	0.0184685
3397.96	0.0194435
3407.6	0.0197508
3417.24	0.0191416
3426.89	0.0207211
3436.53	0.0195163
3446.17	0.0203761
3455.81	0.0200543
3465.45	0.0214198
3475.1	0.0193724
3484.74	0.0198816
3494.38	0.0214653
3504.02	0.022725
3513.67	0.0200591
3523.31	0.0216851
3532.95	0.0211588
3542.59	0.0206495
3552.24	0.0204142
3561.88	0.0207312
3571.52	0.0194227
3581.16	0.0237423
3590.8	0.0229165
3600.45	0.0280705
3610.09	0.0374211
3619.73	0.0517641
3629.37	0.0552334
3639.02	0.0477921
3648.66	0.0451394
3658.3	0.0387219
3667.94	0.0321429
3677.59	0.0240546
3687.23	0.0205501
3696.87	0.0217811
3706.51	0.0166115
3716.16	0.018472
3725.8	0.0168975
3735.44	0.01508
3745.08	0.0175237
3754.72	0.0180563
3764.37	0.0177581
3774.01	0.0189367
3783.65	0.0194666
3793.29	0.0177541
3802.94	0.0187899
3812.58	0.0195938
3822.22	0.0175209
3831.86	0.0182071
3841.51	0.0180029
3851.15	0.0171826
3860.79	0.0194199
3870.43	0.0171181
3880.07	0.0209353
3889.72	0.0187721
3899.36	0.0184474
3909	0.0190002
3918.64	0.0195277
3928.29	0.0200412
3937.93	0.0190693
3947.57	0.0225216
3957.21	0.0157712
3966.86	0.0179645
3976.5	0.0201552
3986.14	0.0202683
3995.78	0.0189621
