Measurement: Infrared, Infrared Data Processed
Mineral: Trilithionite
Rruff sample: R050486
Ideal chemistry: KLi_1.5_Al_1.5_(Si_3_Al)O_10_F_2_
Locality: Cotopaxie, Colorado, USA
Source: California Institute of Technology
Description: Microcrystalline massive, no visible indication of foliation, polytype 1M
Measured chemistry: (K_0.98_Ca_0.02_)(Li_0.53_Al_0.47_)_3_(Si_0.79_Al_0.21_)_4_O_10_(OH)_2_
x	intensity
399.193	0.262571
408.835	0.274921
418.477	0.268041
428.12	0.266034
437.762	0.272933
447.404	0.284721
457.047	0.301395
466.689	0.307476
476.331	0.290122
485.974	0.260897
495.616	0.236928
505.258	0.234736
514.901	0.241792
524.543	0.250293
534.185	0.240636
543.828	0.206721
553.47	0.170894
563.112	0.14031
572.755	0.122654
582.397	0.114132
592.039	0.100733
601.682	0.0906136
611.324	0.0858878
620.966	0.0820094
630.609	0.0796735
640.251	0.0787837
649.893	0.0783805
659.536	0.0777493
669.178	0.082058
678.82	0.0873252
688.463	0.0902554
698.105	0.0892452
707.747	0.0870533
717.39	0.0891914
727.032	0.0939175
736.674	0.0992991
746.317	0.105733
755.959	0.102754
765.601	0.0883469
775.244	0.0777959
784.886	0.0780494
794.528	0.0857678
804.171	0.0986061
813.813	0.109298
823.455	0.124496
833.098	0.121895
842.74	0.108927
852.382	0.116435
862.025	0.139135
871.667	0.170881
881.309	0.199628
890.952	0.23267
900.594	0.272513
910.236	0.300144
919.879	0.306151
929.521	0.314319
939.163	0.321887
948.806	0.335469
958.448	0.366561
968.09	0.405527
977.733	0.428624
987.375	0.421968
997.017	0.396065
1006.66	0.36774
1016.3	0.34108
1025.94	0.308055
1035.59	0.263634
1045.23	0.210884
1054.87	0.177035
1064.51	0.16198
1074.16	0.145347
1083.8	0.126489
1093.44	0.108912
1103.08	0.0927592
1112.72	0.0780267
1122.37	0.0641153
1132.01	0.051023
1141.65	0.0401297
1151.3	0.0325766
1160.94	0.0267939
1170.58	0.021057
1180.22	0.0168284
1189.86	0.0134403
1199.51	0.0107225
1209.15	0.00866245
1218.79	0.00716485
1228.43	0.00639737
1238.08	0.00602085
1247.72	0.0059599
1257.36	0.00561556
1267	0.00605211
1276.64	0.00761456
1286.29	0.00837099
1295.93	0.00680442
1305.57	0.00570948
1315.21	0.0050608
1324.86	0.00443403
1334.5	0.00430496
1344.14	0.00424848
1353.78	0.00448937
1363.43	0.00468832
1373.07	0.00497637
1382.71	0.0050743
1392.35	0.00543727
1401.99	0.00595829
1411.64	0.00643296
1421.28	0.00641588
1430.92	0.00654232
1440.57	0.00685287
1450.21	0.00596851
1459.85	0.00572749
1469.49	0.00466054
1479.13	0.00347181
1488.78	0.00342683
1498.42	0.00326417
1508.06	0.0036514
1517.7	0.00339096
1527.35	0.00375815
1536.99	0.00440946
1546.63	0.00490612
1556.27	0.00587449
1565.91	0.00565059
1575.56	0.0060435
1585.2	0.00579523
1594.84	0.0061619
1604.48	0.00652997
1614.13	0.00750613
1623.77	0.00864319
1633.41	0.00950747
1643.05	0.00985899
1652.7	0.0105625
1662.34	0.00907893
1671.98	0.00796029
1681.62	0.00728945
1691.27	0.00667163
1700.91	0.00784073
1710.55	0.00708303
1720.19	0.00631091
1729.84	0.00555938
1739.48	0.00317666
1749.12	0.00164308
1758.76	0.00150209
1768.4	0.00160423
1778.05	0.00140807
1787.69	0.00119663
1797.33	0.00113606
1806.97	0.00103333
1816.62	0.000639967
1826.26	0.000834122
1835.9	0.000283861
1845.54	0.000605864
1855.18	-7.69635e-05
1864.83	-0.000681241
1874.47	-0.000291363
1884.11	-0.00128052
1893.75	-0.000508134
1903.4	-0.00100079
1913.04	-0.000494219
1922.68	-0.00108982
1932.32	-0.00105736
1941.97	-0.00137162
1951.61	-0.00266772
1961.25	-0.000907308
1970.89	-0.00140177
1980.54	-0.000914134
1990.18	-0.0024722
1999.82	-0.0013495
2009.46	-0.00089306
2019.11	-0.000852574
2028.75	0.000461707
2038.39	-0.00131482
2048.03	-0.000705761
2057.67	-0.000646561
2067.32	-0.00218179
2076.96	-0.000294764
2086.6	-3.46685e-06
2096.24	-0.00026391
2105.89	0.000980857
2115.53	-0.000137445
2125.17	0.000357208
2134.81	0.000530728
2144.45	0.00181993
2154.1	0.00203331
2163.74	0.00202468
2173.38	0.00296866
2183.02	0.00410029
2192.67	0.00168784
2202.31	0.00294756
2211.95	0.00303542
2221.59	0.00398762
2231.24	0.00233069
2240.88	0.0036733
2250.52	0.00356219
2260.16	0.00283298
2269.8	0.00272451
2279.45	0.00315137
2289.09	0.00265295
2298.73	0.00193305
2308.38	0.00204202
2318.02	0.00271175
2327.66	0.00229105
2337.3	0.00246413
2346.94	0.00251855
2356.59	0.00244261
2366.23	0.00299545
2375.87	0.00212467
2385.51	0.00226932
2395.16	0.00250666
2404.8	0.001786
2414.44	0.00220719
2424.08	0.00242296
2433.72	0.00231282
2443.37	0.0021706
2453.01	0.00231621
2462.65	0.00242246
2472.29	0.00195117
2481.94	0.00223807
2491.58	0.00247785
2501.22	0.00204315
2510.86	0.0014805
2520.51	0.00205993
2530.15	0.00184374
2539.79	0.00220622
2549.43	0.00191419
2559.07	0.00160443
2568.72	0.00172976
2578.36	0.00239168
2588	0.00272267
2597.64	0.00252547
2607.29	0.00210917
2616.93	0.00314137
2626.57	0.00279413
2636.21	0.00324458
2645.86	0.00349775
2655.5	0.0033398
2665.14	0.00341019
2674.78	0.00338144
2684.43	0.00376991
2694.07	0.00371137
2703.71	0.00399336
2713.35	0.00415454
2722.99	0.0041329
2732.64	0.00463689
2742.28	0.00483588
2751.92	0.00541641
2761.56	0.00550295
2771.21	0.00588354
2780.85	0.00579559
2790.49	0.00672899
2800.13	0.00719874
2809.78	0.00682992
2819.42	0.00791977
2829.06	0.00866645
2838.7	0.0100193
2848.34	0.0128588
2857.99	0.0135011
2867.63	0.0123096
2877.27	0.0124892
2886.91	0.0127196
2896.56	0.0142367
2906.2	0.0168714
2915.84	0.0198732
2925.48	0.0227415
2935.13	0.0191317
2944.77	0.0170258
2954.41	0.0184118
2964.05	0.0170643
2973.7	0.0155203
2983.34	0.0146269
2992.98	0.0148201
3002.62	0.0152534
3012.26	0.0152185
3021.91	0.0158246
3031.55	0.0174327
3041.19	0.0171049
3050.83	0.0180719
3060.48	0.0183535
3070.12	0.0194168
3079.76	0.0201763
3089.4	0.0212994
3099.05	0.0219766
3108.69	0.0233471
3118.33	0.0239671
3127.97	0.0247067
3137.61	0.0250926
3147.26	0.0267285
3156.9	0.027253
3166.54	0.0285313
3176.18	0.0288823
3185.83	0.0297259
3195.47	0.0305372
3205.11	0.0315054
3214.75	0.0327393
3224.4	0.0328405
3234.04	0.0337686
3243.68	0.0346572
3253.32	0.0352391
3262.97	0.0366284
3272.61	0.0372465
3282.25	0.0370261
3291.89	0.0385082
3301.53	0.0397231
3311.18	0.0395637
3320.82	0.0410222
3330.46	0.0414224
3340.1	0.0414405
3349.75	0.0417917
3359.39	0.042405
3369.03	0.0431429
3378.67	0.0435485
3388.32	0.0444704
3397.96	0.0445707
3407.6	0.044548
3417.24	0.0448901
3426.89	0.0452496
3436.53	0.0446304
3446.17	0.0431797
3455.81	0.0429303
3465.45	0.0428903
3475.1	0.0420679
3484.74	0.0414542
3494.38	0.0409211
3504.02	0.0407497
3513.67	0.0406007
3523.31	0.0402748
3532.95	0.0403454
3542.59	0.0398065
3552.24	0.0401056
3561.88	0.0399839
3571.52	0.0397032
3581.16	0.0403701
3590.8	0.0423822
3600.45	0.0497645
3610.09	0.0577793
3619.73	0.0661988
3629.37	0.0654615
3639.02	0.0547567
3648.66	0.0448941
3658.3	0.03342
3667.94	0.0227082
3677.59	0.0134931
3687.23	0.00715259
3696.87	0.00349451
3706.51	0.00139576
3716.16	4.76116e-05
3725.8	-6.46749e-05
3735.44	0.00162146
3745.08	0.000518505
3754.72	-0.000199566
3764.37	-7.52602e-05
3774.01	0.000455154
3783.65	0.000129444
3793.29	-0.00100758
3802.94	0.00112009
3812.58	-0.00100022
3822.22	-7.53833e-06
3831.86	1.99615e-05
3841.51	-0.000383087
3851.15	0.000898199
3860.79	-0.000341621
3870.43	-0.000158699
3880.07	0.0013723
3889.72	9.42748e-05
3899.36	1.2265e-05
3909	6.75679e-05
3918.64	-2.89992e-05
3928.29	-0.000901829
3937.93	0.000483203
3947.57	-0.000348952
3957.21	0.000436718
3966.86	7.61944e-05
3976.5	-0.000350812
3986.14	-0.000649707
3995.78	0.00063137
