Measurement: Infrared, Infrared Data Processed
Mineral: Trilithionite
Rruff sample: R040105
Ideal chemistry: KLi_1.5_Al_1.5_(Si_3_Al)O_10_F_2_
Locality: Brown Derby mine, Ohio City, Gunnison County, Colorado, USA
Source: University of Arizona Mineral Museum
Description: Purple hexagonal tablet
Measured chemistry: (K_0.82_Li_0.14_Na_0.04_)(Li_0.53_Al_0.42_Mn_0.05_)_3_(Si_0.84_Al_0.17_)_4_O_10_((OH)_0.59_F_0.41_)_2_
x	intensity
399.193	0
408.835	0.172026
418.477	0.182178
428.12	0.194729
437.762	0.203073
447.404	0.191521
457.047	0.195195
466.689	0.217443
476.331	0.22133
485.974	0.195996
495.616	0.182421
505.258	0.183796
514.901	0.186525
524.543	0.185737
534.185	0.171227
543.828	0.148331
553.47	0.126197
563.112	0.102334
572.755	0.0857043
582.397	0.0703826
592.039	0.0594011
601.682	0.0523794
611.324	0.0491969
620.966	0.0451336
630.609	0.0391647
640.251	0.0373856
649.893	0.0383821
659.536	0.0412866
669.178	0.0445998
678.82	0.048139
688.463	0.0510187
698.105	0.0519849
707.747	0.0543288
717.39	0.0590652
727.032	0.065495
736.674	0.0659731
746.317	0.0697131
755.959	0.0726732
765.601	0.0691063
775.244	0.0728004
784.886	0.0808572
794.528	0.0825133
804.171	0.0764727
813.813	0.0635362
823.455	0.0511766
833.098	0.046026
842.74	0.0468575
852.382	0.0552115
862.025	0.0690932
871.667	0.0835109
881.309	0.0962707
890.952	0.108932
900.594	0.126465
910.236	0.152595
919.879	0.181862
929.521	0.211705
939.163	0.248843
948.806	0.29079
958.448	0.338307
968.09	0.367718
977.733	0.369303
987.375	0.367862
997.017	0.362792
1006.66	0.341142
1016.3	0.32147
1025.94	0.292545
1035.59	0.236894
1045.23	0.182168
1054.87	0.146979
1064.51	0.127337
1074.16	0.117804
1083.8	0.112708
1093.44	0.101198
1103.08	0.0854238
1112.72	0.0703446
1122.37	0.0565917
1132.01	0.0440605
1141.65	0.0330613
1151.3	0.0250911
1160.94	0.0212179
1170.58	0.0184241
1180.22	0.0165784
1189.86	0.0148048
1199.51	0.0123785
1209.15	0.0105323
1218.79	0.00927759
1228.43	0.00851801
1238.08	0.00794009
1247.72	0.0076582
1257.36	0.00774687
1267	0.00783919
1276.64	0.0076869
1286.29	0.00783788
1295.93	0.0077489
1305.57	0.00786476
1315.21	0.00784865
1324.86	0.00810706
1334.5	0.00823415
1344.14	0.00869339
1353.78	0.00932884
1363.43	0.00953079
1373.07	0.00914255
1382.71	0.00957578
1392.35	0.00943103
1401.99	0.00979486
1411.64	0.0102316
1421.28	0.00972976
1430.92	0.00908138
1440.57	0.00887613
1450.21	0.0087343
1459.85	0.00878696
1469.49	0.00788489
1479.13	0.00632585
1488.78	0.00546569
1498.42	0.00526466
1508.06	0.00550481
1517.7	0.00586511
1527.35	0.0058017
1536.99	0.00691366
1546.63	0.00845828
1556.27	0.0101496
1565.91	0.0117818
1575.56	0.0135738
1585.2	0.0154902
1594.84	0.0165677
1604.48	0.0166477
1614.13	0.0164666
1623.77	0.0167499
1633.41	0.0163803
1643.05	0.0153502
1652.7	0.0142605
1662.34	0.0130496
1671.98	0.0118597
1681.62	0.0108303
1691.27	0.00904742
1700.91	0.00832223
1710.55	0.00781798
1720.19	0.00923439
1729.84	0.00965886
1739.48	0.00903868
1749.12	0.00789409
1758.76	0.00643285
1768.4	0.00535386
1778.05	0.00474283
1787.69	0.00467177
1797.33	0.004598
1806.97	0.00411784
1816.62	0.00390209
1826.26	0.00405936
1835.9	0.0047176
1845.54	0.00354814
1855.18	0.00354558
1864.83	0.00334186
1874.47	0.0028587
1884.11	0.00259342
1893.75	0.00331709
1903.4	0.0025092
1913.04	0.00177715
1922.68	0.00126291
1932.32	-0.000138209
1941.97	-0.000525915
1951.61	-0.00177003
1961.25	-0.0040973
1970.89	-0.00462115
1980.54	-0.00612444
1990.18	-0.00246277
1999.82	-0.00442881
2009.46	-0.0047919
2019.11	-0.00594468
2028.75	-0.00758048
2038.39	-0.00642013
2048.03	-0.00397149
2057.67	-0.00262682
2067.32	0.000822155
2076.96	-0.00148086
2086.6	-0.000899399
2096.24	0.00136256
2105.89	0.00155301
2115.53	0.00149037
2125.17	-0.000284392
2134.81	0.000247489
2144.45	-0.00390792
2154.1	-0.00553712
2163.74	-0.00325826
2173.38	-0.00188836
2183.02	0.00110113
2192.67	-0.00238402
2202.31	-0.00162489
2211.95	0.00107083
2221.59	-0.00197622
2231.24	-0.00107858
2240.88	0.000693871
2250.52	0.00114796
2260.16	0.00153259
2269.8	0.00169487
2279.45	0.00272595
2289.09	0.00288651
2298.73	0.00385971
2308.38	0.00353292
2318.02	0.00429274
2327.66	0.00448569
2337.3	0.00482506
2346.94	0.00482805
2356.59	0.00457074
2366.23	0.00488509
2375.87	0.00481433
2385.51	0.00465442
2395.16	0.00450447
2404.8	0.00327143
2414.44	0.00411701
2424.08	0.00536981
2433.72	0.00506037
2443.37	0.00526112
2453.01	0.00434676
2462.65	0.00445921
2472.29	0.00469047
2481.94	0.00374419
2491.58	0.00494594
2501.22	0.00354282
2510.86	0.00428311
2520.51	0.00468135
2530.15	0.00351073
2539.79	0.00417238
2549.43	0.00474919
2559.07	0.00442672
2568.72	0.00421428
2578.36	0.00409885
2588	0.00500188
2597.64	0.00522795
2607.29	0.0048948
2616.93	0.00536256
2626.57	0.00596422
2636.21	0.00542484
2645.86	0.00561821
2655.5	0.00620605
2665.14	0.00667575
2674.78	0.00522777
2684.43	0.00626338
2694.07	0.00578685
2703.71	0.00645484
2713.35	0.00780357
2722.99	0.00639537
2732.64	0.00637744
2742.28	0.00823357
2751.92	0.00671163
2761.56	0.00695816
2771.21	0.00702615
2780.85	0.00725848
2790.49	0.00817903
2800.13	0.00763092
2809.78	0.00815427
2819.42	0.00839333
2829.06	0.00928098
2838.7	0.00868632
2848.34	0.00952196
2857.99	0.0105875
2867.63	0.00974537
2877.27	0.00861306
2886.91	0.00917717
2896.56	0.00848878
2906.2	0.0102394
2915.84	0.0106413
2925.48	0.01082
2935.13	0.0113068
2944.77	0.0105232
2954.41	0.0116454
2964.05	0.0108364
2973.7	0.0108915
2983.34	0.0101253
2992.98	0.0098853
3002.62	0.0109852
3012.26	0.0107797
3021.91	0.0114874
3031.55	0.0117478
3041.19	0.0123754
3050.83	0.012871
3060.48	0.0116126
3070.12	0.0119317
3079.76	0.0134098
3089.4	0.0133908
3099.05	0.0146344
3108.69	0.0151689
3118.33	0.0152348
3127.97	0.0161332
3137.61	0.0153856
3147.26	0.0156523
3156.9	0.0152842
3166.54	0.0177386
3176.18	0.0176295
3185.83	0.0184326
3195.47	0.0180192
3205.11	0.0203224
3214.75	0.0186998
3224.4	0.0197783
3234.04	0.0189296
3243.68	0.0229083
3253.32	0.0205771
3262.97	0.0221597
3272.61	0.0215088
3282.25	0.0221105
3291.89	0.0229046
3301.53	0.0217051
3311.18	0.0225925
3320.82	0.0242583
3330.46	0.023684
3340.1	0.0232554
3349.75	0.0248068
3359.39	0.026248
3369.03	0.0246343
3378.67	0.0238971
3388.32	0.0243122
3397.96	0.0231818
3407.6	0.0239828
3417.24	0.0254682
3426.89	0.0239163
3436.53	0.0244857
3446.17	0.0261546
3455.81	0.0246453
3465.45	0.0248459
3475.1	0.0233236
3484.74	0.0241692
3494.38	0.0246997
3504.02	0.0263458
3513.67	0.0243496
3523.31	0.0223521
3532.95	0.0220945
3542.59	0.0215468
3552.24	0.0195663
3561.88	0.0212053
3571.52	0.019467
3581.16	0.0216399
3590.8	0.0198658
3600.45	0.0209273
3610.09	0.0207422
3619.73	0.0241365
3629.37	0.0182504
3639.02	0.0177897
3648.66	0.0152508
3658.3	0.0142276
3667.94	0.0164531
3677.59	0.0106371
3687.23	0.0120004
3696.87	0.0111009
3706.51	0.00716604
3716.16	0.00921885
3725.8	0.0084868
3735.44	0.0101767
3745.08	0.00994089
3754.72	0.00808818
3764.37	0.00986806
3774.01	0.0121401
3783.65	0.00947255
3793.29	0.00988963
3802.94	0.0083532
3812.58	0.00751887
3822.22	0.00762013
3831.86	0.0104162
3841.51	0.00924237
3851.15	0.00982834
3860.79	0.0122957
3870.43	0.0104945
3880.07	0.0112943
3889.72	0.0105641
3899.36	0.0138938
3909	0.0127999
3918.64	0.01135
3928.29	0.0127536
3937.93	0.0127767
3947.57	0.0126287
3957.21	0.00957565
3966.86	0.00977611
3976.5	0.0119811
3986.14	0.0109753
3995.78	0.0104681
