Measurement: Infrared, Infrared Data Processed
Mineral: Triphylite
Rruff sample: R050494
Ideal chemistry: LiFe^2+^PO_4_
Locality: Big Chief mine, Glendale, Pennington County, South Dakota, USA
Source: California Institute of Technology
Description: Bluish gray fragment
Measured chemistry: Li_1.00_(Fe^2+^_0.75_Mn^2+^_0.23_Mg_0.02_)_Î£=1_P_1.00_O_4_ ; Li not measured but estimated by difference
x	intensity
395.336	0.0491743
404.978	0.0419912
414.62	0.0393178
424.263	0.0385076
433.905	0.042728
443.547	0.0467052
453.19	0.0589353
462.832	0.0722414
472.474	0.0679142
482.117	0.0601501
491.759	0.0580649
501.401	0.0537625
511.044	0.0477511
520.686	0.0434603
530.328	0.0404547
539.971	0.0459784
549.613	0.060214
559.255	0.0393011
568.898	0.0350356
578.54	0.0427266
588.182	0.0219679
597.825	0.0125263
607.467	0.0116795
617.109	0.0162865
626.752	0.0372286
636.394	0.0626976
646.036	0.0483835
655.679	0.0167105
665.321	0.00719881
674.963	0.00546391
684.606	0.00505467
694.248	0.00481151
703.89	0.0048141
713.533	0.00520774
723.175	0.00569162
732.817	0.00621242
742.46	0.00660261
752.102	0.0072772
761.744	0.00782941
771.387	0.00873456
781.029	0.00987242
790.671	0.0110025
800.314	0.0121525
809.956	0.0138031
819.598	0.0155418
829.241	0.0177615
838.883	0.0196586
848.525	0.0222083
858.168	0.0258599
867.81	0.029657
877.452	0.033696
887.095	0.0386802
896.737	0.0448344
906.379	0.0529582
916.022	0.063168
925.664	0.0746744
935.306	0.0862746
944.949	0.0905182
954.591	0.0924453
964.233	0.0944652
973.876	0.0929736
983.518	0.0911852
993.16	0.0896058
1002.8	0.0849389
1012.45	0.081221
1022.09	0.0822698
1031.73	0.0885949
1041.37	0.0912741
1051.01	0.0913096
1060.66	0.0879235
1070.3	0.0797234
1079.94	0.0666666
1089.58	0.0616457
1099.23	0.0617363
1108.87	0.0426747
1118.51	0.0260911
1128.15	0.0191245
1137.8	0.0391503
1147.44	0.0273184
1157.08	0.0132533
1166.72	0.00511166
1176.37	0.00251474
1186.01	0.00143269
1195.65	0.00098663
1205.29	0.000557426
1214.93	0.000344428
1224.58	5.46245e-05
1234.22	-8.83599e-05
1243.86	5.5851e-05
1253.5	-1.83003e-05
1263.15	-0.000160024
1272.79	-8.76439e-05
1282.43	0.0001496
1292.07	0.000101655
1301.71	0.000132883
1311.36	0.000340265
1321	0.000418392
1330.64	0.000240445
1340.28	0.00026626
1349.93	0.000456467
1359.57	0.000590852
1369.21	0.000605422
1378.85	0.000685404
1388.5	0.00102816
1398.14	0.00112268
1407.78	0.00131196
1417.42	0.0017654
1427.07	0.00180498
1436.71	0.00199469
1446.35	0.00197614
1455.99	0.0020725
1465.63	0.00173159
1475.28	0.00176245
1484.92	0.00165765
1494.56	0.00156007
1504.2	0.00134763
1513.85	0.00132715
1523.49	0.00113416
1533.13	0.000998108
1542.77	0.00112136
1552.42	0.00103172
1562.06	0.00105053
1571.7	0.00101494
1581.34	0.00102728
1590.98	0.00106361
1600.63	0.00098426
1610.27	0.00111339
1619.91	0.00133371
1629.55	0.00136242
1639.2	0.00106478
1648.84	0.00140498
1658.48	0.00117533
1668.12	0.00138416
1677.77	0.00131539
1687.41	0.00138425
1697.05	0.00136391
1706.69	0.00127155
1716.34	0.00155442
1725.98	0.0011838
1735.62	0.00130561
1745.26	0.0013029
1754.9	0.00131458
1764.55	0.00131408
1774.19	0.000980633
1783.83	0.00124227
1793.47	0.0014065
1803.12	0.00116281
1812.76	0.0012448
1822.4	0.00080748
1832.04	0.00110254
1841.69	0.000952258
1851.33	0.000970315
1860.97	0.000338864
1870.61	0.000862376
1880.26	0.000696193
1889.9	0.00051046
1899.54	0.000584896
1909.18	0.000536338
1918.82	0.00102946
1928.47	0.00103568
1938.11	0.000603446
1947.75	0.000566757
1957.39	0.000214416
1967.04	0.00112431
1976.68	0.000307025
1986.32	0.000934263
1995.96	0.000557864
2005.61	-0.00107309
2015.25	0.000543327
2024.89	0.000172623
2034.53	-0.000363276
2044.17	-0.000622487
2053.82	0.000129447
2063.46	-0.000558302
2073.1	-0.00140583
2082.74	-0.000775062
2092.39	-0.000488583
2102.03	-0.000420757
2111.67	-0.00119348
2121.31	-0.00036857
2130.96	0.00108949
2140.6	0.000229545
2150.24	-0.000981689
2159.88	0.000486571
2169.53	-6.30105e-05
2179.17	-0.000559682
2188.81	-0.000962046
2198.45	-4.69016e-05
2208.09	-0.000626898
2217.74	0.000997866
2227.38	0.000432154
2237.02	0.00182036
2246.66	0.000382812
2256.31	-9.76212e-06
2265.95	9.81387e-06
2275.59	-0.000117225
2285.23	-0.000719671
2294.88	-0.000158611
2304.52	-0.000113272
2314.16	0.000336491
2323.8	0.000330252
2333.45	0.00129137
2343.09	0.00154917
2352.73	0.0014108
2362.37	0.00253553
2372.01	0.00163535
2381.66	0.000783128
2391.3	0.00114562
2400.94	0.000910729
2410.58	0.00090027
2420.23	0.000799322
2429.87	0.00127256
2439.51	0.000893785
2449.15	0.000579892
2458.8	0.000830972
2468.44	0.00112092
2478.08	0.000388873
2487.72	0.000941502
2497.36	0.00085598
2507.01	0.00087343
2516.65	0.00116734
2526.29	0.000523122
2535.93	0.000511602
2545.58	0.000578215
2555.22	0.000496655
2564.86	-8.98437e-06
2574.5	0.000204364
2584.14	-0.000175261
2593.79	6.23362e-05
2603.43	0.000209516
2613.07	0.000153701
2622.72	0.000232872
2632.36	-0.000236951
2642	8.24185e-05
2651.64	0.000264905
2661.28	0.000118983
2670.93	0.000418741
2680.57	0.000744459
2690.21	0.000454322
2699.85	0.000669361
2709.5	0.000261542
2719.14	0.000343909
2728.78	0.0004671
2738.42	0.000486234
2748.07	0.0011269
2757.71	0.000630103
2767.35	0.000490546
2776.99	0.00106223
2786.63	0.000980413
2796.28	0.00128156
2805.92	0.000941469
2815.56	0.000636629
2825.2	0.000736857
2834.85	0.000953174
2844.49	0.000957065
2854.13	0.00123989
2863.77	0.00117586
2873.41	0.00156115
2883.06	0.00068532
2892.7	0.000734485
2902.34	0.000953828
2911.99	0.000881964
2921.63	0.00108649
2931.27	0.00162734
2940.91	0.00135758
2950.55	0.00151225
2960.2	0.000718508
2969.84	0.000778255
2979.48	0.000716574
2989.12	0.000223119
2998.77	0.000961726
3008.41	0.000173518
3018.05	0.000812112
3027.69	0.000545019
3037.34	0.00116014
3046.98	0.000252115
3056.62	0.000521279
3066.26	0.000906255
3075.9	0.000525412
3085.55	0.000287658
3095.19	0.000765437
3104.83	0.000310483
3114.47	-4.48977e-05
3124.12	0.00050028
3133.76	0.000312915
3143.4	0.000218684
3153.04	-9.64251e-06
3162.68	0.000453913
3172.33	7.57028e-05
3181.97	0.000363087
3191.61	-0.000363024
3201.26	-0.000389013
3210.9	0.0002691
3220.54	-0.000190724
3230.18	-0.000299129
3239.82	-0.000809686
3249.47	0.000316624
3259.11	-0.000979652
3268.75	-0.000484029
3278.39	-0.000841978
3288.04	-0.00100501
3297.68	-0.000484152
3307.32	-0.0008932
3316.96	-0.00128705
3326.61	-0.000870017
3336.25	-0.00104184
3345.89	-0.00111481
3355.53	-0.00118175
3365.17	-0.00122064
3374.82	-0.000784485
3384.46	-0.00113331
3394.1	-0.00126088
3403.74	-0.00163598
3413.39	-0.00112588
3423.03	-0.00134307
3432.67	-0.00232861
3442.31	-0.00135759
3451.95	-0.00172856
3461.6	-0.0016552
3471.24	-0.00145189
3480.88	-0.00280717
3490.53	-0.00272392
3500.17	-0.00210739
3509.81	-0.0017295
3519.45	-0.00255458
3529.09	-0.00158154
3538.74	-0.00283951
3548.38	-0.00232475
3558.02	-0.00287167
3567.66	-0.00181723
3577.31	-0.00313671
3586.95	-0.00263155
3596.59	-0.00205241
3606.23	-0.00243451
3615.88	-0.00348752
3625.52	-0.00322571
3635.16	-0.00344672
3644.8	-0.0027308
3654.44	-0.00362721
3664.09	-0.00318968
3673.73	-0.00318231
3683.37	-0.00372934
3693.01	-0.00456015
3702.66	-0.00412416
3712.3	-0.00356103
3721.94	-0.00409959
3731.58	-0.00397223
3741.22	-0.00385884
3750.87	-0.00326529
3760.51	-0.00443239
3770.15	-0.00444679
3779.8	-0.00427258
3789.44	-0.00468745
3799.08	-0.00447985
3808.72	-0.00439231
3818.36	-0.00455319
3828.01	-0.00396149
3837.65	-0.00429718
3847.29	-0.00456224
3856.93	-0.00383262
3866.58	-0.00508567
3876.22	-0.00484733
3885.86	-0.00369565
3895.5	-0.00503452
3905.14	-0.00515271
3914.79	-0.00498482
3924.43	-0.00466532
3934.07	-0.0051159
3943.71	-0.00449806
3953.36	-0.00554259
3963	-0.00553899
3972.64	-0.00452915
3982.28	-0.00556202
3991.93	-0.00508719
