Measurement: Infrared, Infrared Data Processed
Mineral: Triphylite
Rruff sample: R050366
Ideal chemistry: LiFe^2+^PO_4_
Locality: Cornelia mine, Hagendorf, Bavaria, Germany
Source: Marcus Origlieri
Description: Bluish gray massive associated with brown zwieselite R050279
Measured chemistry: Li_1.00_(Fe^2+^_0.80_Mn^2+^_0.20_)_Î£=1_P_1.00_O_4_ ; Li not measured but estimated by difference and charge balance.
x	intensity
399.193	0.150031
408.835	0.13557
418.477	0.138039
428.12	0.14928
437.762	0.17338
447.404	0.212056
457.047	0.268742
466.689	0.263535
476.331	0.213621
485.974	0.195787
495.616	0.192146
505.258	0.168314
514.901	0.152826
524.543	0.140445
534.185	0.139152
543.828	0.204703
553.47	0.162036
563.112	0.102532
572.755	0.148912
582.397	0.109653
592.039	0.0566696
601.682	0.0447617
611.324	0.0501071
620.966	0.0849293
630.609	0.221594
640.251	0.199103
649.893	0.101968
659.536	0.0356261
669.178	0.0251492
678.82	0.022885
688.463	0.0215402
698.105	0.0207038
707.747	0.0198649
717.39	0.0204009
727.032	0.0216445
736.674	0.0233379
746.317	0.024721
755.959	0.0259821
765.601	0.0270514
775.244	0.0289392
784.886	0.0315431
794.528	0.0357208
804.171	0.0397228
813.813	0.0449642
823.455	0.0505545
833.098	0.0582311
842.74	0.0670328
852.382	0.0795781
862.025	0.0953794
871.667	0.117999
881.309	0.147299
890.952	0.186973
900.594	0.239673
910.236	0.303934
919.879	0.376451
929.521	0.451382
939.163	0.485179
948.806	0.46468
958.448	0.459191
968.09	0.429458
977.733	0.396979
987.375	0.372312
997.017	0.34442
1006.66	0.320256
1016.3	0.324038
1025.94	0.36124
1035.59	0.387278
1045.23	0.373766
1054.87	0.34212
1064.51	0.294802
1074.16	0.244824
1083.8	0.203115
1093.44	0.227873
1103.08	0.159644
1112.72	0.107579
1122.37	0.0695738
1132.01	0.0969052
1141.65	0.122318
1151.3	0.0702534
1160.94	0.0349576
1170.58	0.0201326
1180.22	0.0140761
1189.86	0.0118329
1199.51	0.00983673
1209.15	0.00942814
1218.79	0.00885702
1228.43	0.00764195
1238.08	0.00681632
1247.72	0.00595053
1257.36	0.00565451
1267	0.00544957
1276.64	0.00546652
1286.29	0.00511545
1295.93	0.00495601
1305.57	0.00461551
1315.21	0.00460369
1324.86	0.00502009
1334.5	0.00467583
1344.14	0.00511297
1353.78	0.00495013
1363.43	0.0053031
1373.07	0.00518579
1382.71	0.00539951
1392.35	0.00617708
1401.99	0.00630598
1411.64	0.00660097
1421.28	0.00710993
1430.92	0.0073357
1440.57	0.00752367
1450.21	0.00739727
1459.85	0.00739321
1469.49	0.00734318
1479.13	0.00786073
1488.78	0.00738915
1498.42	0.00781436
1508.06	0.00799655
1517.7	0.00807161
1527.35	0.00875261
1536.99	0.00876705
1546.63	0.00887969
1556.27	0.00906773
1565.91	0.00970744
1575.56	0.00979544
1585.2	0.0102956
1594.84	0.0106296
1604.48	0.0104779
1614.13	0.0105866
1623.77	0.0109615
1633.41	0.0111496
1643.05	0.0108957
1652.7	0.0103406
1662.34	0.0105912
1671.98	0.0105436
1681.62	0.0104278
1691.27	0.00998832
1700.91	0.0102308
1710.55	0.0102434
1720.19	0.00981021
1729.84	0.00935153
1739.48	0.00805231
1749.12	0.00828312
1758.76	0.00898059
1768.4	0.0089837
1778.05	0.00896372
1787.69	0.00879903
1797.33	0.00915397
1806.97	0.0086037
1816.62	0.00826383
1826.26	0.00813172
1835.9	0.00918271
1845.54	0.00739331
1855.18	0.00794281
1864.83	0.00787939
1874.47	0.00750048
1884.11	0.00878772
1893.75	0.00765136
1903.4	0.00760394
1913.04	0.00810255
1922.68	0.00687312
1932.32	0.00569664
1941.97	0.00597569
1951.61	0.00432512
1961.25	0.00232505
1970.89	0.00333639
1980.54	0.00458502
1990.18	0.00511265
1999.82	-0.000836024
2009.46	0.00115322
2019.11	0.0002469
2028.75	0.00307472
2038.39	0.00443626
2048.03	0.00332352
2057.67	0.00451454
2067.32	0.00478447
2076.96	0.00664076
2086.6	0.00579068
2096.24	0.00665239
2105.89	0.00519823
2115.53	0.00700533
2125.17	0.00547899
2134.81	0.00101574
2144.45	0.00336831
2154.1	-0.00128919
2163.74	0.0067891
2173.38	0.00242296
2183.02	0.00619623
2192.67	0.00256822
2202.31	0.00647884
2211.95	0.00666491
2221.59	0.00826672
2231.24	0.0117813
2240.88	0.00937474
2250.52	0.0110086
2260.16	0.00876342
2269.8	0.0101871
2279.45	0.00963607
2289.09	0.0116064
2298.73	0.0134508
2308.38	0.013944
2318.02	0.0139373
2327.66	0.0135398
2337.3	0.0135846
2346.94	0.0117553
2356.59	0.0133714
2366.23	0.0128117
2375.87	0.013417
2385.51	0.0129298
2395.16	0.0132011
2404.8	0.0120641
2414.44	0.0117934
2424.08	0.0122725
2433.72	0.0135469
2443.37	0.0148614
2453.01	0.0138046
2462.65	0.0137998
2472.29	0.014292
2481.94	0.0132614
2491.58	0.0145523
2501.22	0.0135917
2510.86	0.0135281
2520.51	0.0145286
2530.15	0.0124016
2539.79	0.0144051
2549.43	0.0133986
2559.07	0.0142269
2568.72	0.0142781
2578.36	0.0142298
2588	0.0150391
2597.64	0.0163168
2607.29	0.0152181
2616.93	0.0169431
2626.57	0.0159529
2636.21	0.0161046
2645.86	0.015501
2655.5	0.016401
2665.14	0.0155171
2674.78	0.0161787
2684.43	0.0163647
2694.07	0.0144923
2703.71	0.0143609
2713.35	0.0157753
2722.99	0.0160263
2732.64	0.0145781
2742.28	0.0171332
2751.92	0.0165477
2761.56	0.0162192
2771.21	0.0154926
2780.85	0.0159145
2790.49	0.0158953
2800.13	0.015877
2809.78	0.0168945
2819.42	0.0177899
2829.06	0.0180246
2838.7	0.0179945
2848.34	0.0184462
2857.99	0.0171206
2867.63	0.0179667
2877.27	0.0162788
2886.91	0.0178703
2896.56	0.0174865
2906.2	0.0185871
2915.84	0.0199731
2925.48	0.0192846
2935.13	0.0186164
2944.77	0.0182768
2954.41	0.0189684
2964.05	0.0176165
2973.7	0.0163492
2983.34	0.0189576
2992.98	0.0205211
3002.62	0.0196009
3012.26	0.0193237
3021.91	0.0186654
3031.55	0.0179981
3041.19	0.0192246
3050.83	0.0201086
3060.48	0.0192132
3070.12	0.0198199
3079.76	0.0203415
3089.4	0.0213692
3099.05	0.0199718
3108.69	0.0212547
3118.33	0.0219933
3127.97	0.0216582
3137.61	0.0236717
3147.26	0.0229948
3156.9	0.0231913
3166.54	0.0229837
3176.18	0.0222371
3185.83	0.0222057
3195.47	0.0226774
3205.11	0.0230201
3214.75	0.0252109
3224.4	0.0214929
3234.04	0.0233857
3243.68	0.0249301
3253.32	0.0227845
3262.97	0.0214851
3272.61	0.021419
3282.25	0.0215455
3291.89	0.0232109
3301.53	0.0236413
3311.18	0.022841
3320.82	0.0249654
3330.46	0.02275
3340.1	0.0249609
3349.75	0.0244263
3359.39	0.0233804
3369.03	0.0218623
3378.67	0.0241992
3388.32	0.0223098
3397.96	0.0239845
3407.6	0.0227697
3417.24	0.026316
3426.89	0.0244457
3436.53	0.0250812
3446.17	0.0214486
3455.81	0.0235064
3465.45	0.0236343
3475.1	0.021385
3484.74	0.0219101
3494.38	0.0232488
3504.02	0.0226167
3513.67	0.0225856
3523.31	0.0233453
3532.95	0.0192308
3542.59	0.0193995
3552.24	0.0195162
3561.88	0.0179024
3571.52	0.019155
3581.16	0.0177898
3590.8	0.0141793
3600.45	0.0160092
3610.09	0.0165591
3619.73	0.0167453
3629.37	0.0173187
3639.02	0.0191652
3648.66	0.0191998
3658.3	0.0180613
3667.94	0.0168046
3677.59	0.0209474
3687.23	0.0146669
3696.87	0.0208912
3706.51	0.0165581
3716.16	0.0170867
3725.8	0.0204808
3735.44	0.0257419
3745.08	0.0146011
3754.72	0.0204556
3764.37	0.019734
3774.01	0.0179316
3783.65	0.0215855
3793.29	0.0188939
3802.94	0.0160367
3812.58	0.016848
3822.22	0.0208528
3831.86	0.0170539
3841.51	0.0217816
3851.15	0.0207639
3860.79	0.0220719
3870.43	0.0202525
3880.07	0.0230963
3889.72	0.0148677
3899.36	0.0186462
3909	0.0167523
3918.64	0.0234844
3928.29	0.0203564
3937.93	0.0178676
3947.57	0.0192296
3957.21	0.0195959
3966.86	0.0185596
3976.5	0.0201902
3986.14	0.023184
3995.78	0.0193549
