Measurement: Infrared, Infrared Data Processed
Mineral: Triplite
Rruff sample: R050615
Ideal chemistry: Mn^2+^_2_(PO_4_)F
Locality: Vienna, Austria
Source: University of Arizona Mineral Museum
Description: Brown massive
Measured chemistry: (Mn^2+^_1.09_Fe^2+^_0.88_Ca_0.02_Mg_0.01_)_Σ=2_(P_1.00_O_4_)(F_0.72_(OH)_0.28_)_Σ=1_ ; = light phase (triplite) while the dark phase is fluorapatite: (Ca_4.44_Mn^2+^_0.44_Fe^2+^_0.12_)_Σ=5_(P_1.00_O_4_)F_1.00_
x	intensity
399.193	0.0454519
408.835	0.035359
418.477	0.0350535
428.12	0.0359961
437.762	0.0444508
447.404	0.0469729
457.047	0.0410151
466.689	0.0356281
476.331	0.0344946
485.974	0.0363247
495.616	0.0344812
505.258	0.0358759
514.901	0.0383389
524.543	0.0428655
534.185	0.0525386
543.828	0.0649682
553.47	0.0838848
563.112	0.106106
572.755	0.114594
582.397	0.0980867
592.039	0.0777389
601.682	0.0711786
611.324	0.0559991
620.966	0.0454473
630.609	0.0328647
640.251	0.0239824
649.893	0.0206216
659.536	0.0189227
669.178	0.0186438
678.82	0.0178078
688.463	0.0182656
698.105	0.0182323
707.747	0.0183592
717.39	0.018656
727.032	0.0185532
736.674	0.0193079
746.317	0.0200189
755.959	0.0207318
765.601	0.0214223
775.244	0.0222614
784.886	0.0235419
794.528	0.0255212
804.171	0.0271784
813.813	0.0284836
823.455	0.0302411
833.098	0.0324962
842.74	0.0356169
852.382	0.0388965
862.025	0.0431635
871.667	0.0483916
881.309	0.0537929
890.952	0.0604054
900.594	0.0673579
910.236	0.0744726
919.879	0.0814897
929.521	0.0895272
939.163	0.0989866
948.806	0.109291
958.448	0.119963
968.09	0.128987
977.733	0.134729
987.375	0.149529
997.017	0.164907
1006.66	0.174565
1016.3	0.178977
1025.94	0.178168
1035.59	0.170748
1045.23	0.157489
1054.87	0.144569
1064.51	0.127265
1074.16	0.1069
1083.8	0.0890912
1093.44	0.0739761
1103.08	0.0581035
1112.72	0.0449883
1122.37	0.033773
1132.01	0.0245455
1141.65	0.0177409
1151.3	0.0137507
1160.94	0.0119238
1170.58	0.0101313
1180.22	0.00878928
1189.86	0.00777857
1199.51	0.00637813
1209.15	0.00540972
1218.79	0.00482595
1228.43	0.00428343
1238.08	0.00393546
1247.72	0.00380713
1257.36	0.00400574
1267	0.00376156
1276.64	0.00410796
1286.29	0.00415732
1295.93	0.00403727
1305.57	0.00388817
1315.21	0.00462491
1324.86	0.00465164
1334.5	0.00449889
1344.14	0.004938
1353.78	0.00463307
1363.43	0.00558291
1373.07	0.00554482
1382.71	0.00568093
1392.35	0.0066071
1401.99	0.00679541
1411.64	0.00743048
1421.28	0.00846134
1430.92	0.00847928
1440.57	0.00800661
1450.21	0.00843405
1459.85	0.0086426
1469.49	0.00800993
1479.13	0.00834951
1488.78	0.00778585
1498.42	0.00839223
1508.06	0.00789155
1517.7	0.00830893
1527.35	0.00841297
1536.99	0.00871117
1546.63	0.00864185
1556.27	0.00912971
1565.91	0.00901811
1575.56	0.00908121
1585.2	0.00904833
1594.84	0.00928094
1604.48	0.00917026
1614.13	0.00966412
1623.77	0.0097272
1633.41	0.00994373
1643.05	0.0101732
1652.7	0.00947388
1662.34	0.00911794
1671.98	0.0091563
1681.62	0.00878592
1691.27	0.00909417
1700.91	0.00900202
1710.55	0.00821783
1720.19	0.00870164
1729.84	0.00783083
1739.48	0.00813766
1749.12	0.00795386
1758.76	0.00901467
1768.4	0.00928202
1778.05	0.00887743
1787.69	0.00898986
1797.33	0.0094752
1806.97	0.00893349
1816.62	0.0085887
1826.26	0.010054
1835.9	0.00960723
1845.54	0.00883551
1855.18	0.00904546
1864.83	0.0100192
1874.47	0.0084842
1884.11	0.00863086
1893.75	0.00884912
1903.4	0.00753266
1913.04	0.00947178
1922.68	0.0084597
1932.32	0.00773818
1941.97	0.00844498
1951.61	0.00615131
1961.25	0.00701742
1970.89	0.00968577
1980.54	0.00571893
1990.18	0.00369633
1999.82	0.00728317
2009.46	0.00400039
2019.11	0.00520763
2028.75	0.00450479
2038.39	0.00623267
2048.03	0.00880568
2057.67	0.0087568
2067.32	0.00986075
2076.96	0.010074
2086.6	0.00887201
2096.24	0.00994115
2105.89	0.0110192
2115.53	0.0115253
2125.17	0.00811206
2134.81	0.00477493
2144.45	0.0097187
2154.1	0.00260084
2163.74	0.00911602
2173.38	0.00656863
2183.02	0.0111567
2192.67	0.0133813
2202.31	0.0129522
2211.95	0.0126541
2221.59	0.0124828
2231.24	0.0128655
2240.88	0.0166291
2250.52	0.0123598
2260.16	0.0156131
2269.8	0.0161102
2279.45	0.0161187
2289.09	0.0167314
2298.73	0.0168434
2308.38	0.0166751
2318.02	0.0179374
2327.66	0.017876
2337.3	0.0172281
2346.94	0.0159396
2356.59	0.0173575
2366.23	0.0179348
2375.87	0.0168151
2385.51	0.0154315
2395.16	0.015018
2404.8	0.0153555
2414.44	0.0152893
2424.08	0.0172491
2433.72	0.0161333
2443.37	0.0159494
2453.01	0.0176466
2462.65	0.0178003
2472.29	0.0161011
2481.94	0.0176986
2491.58	0.0163388
2501.22	0.0177344
2510.86	0.0180766
2520.51	0.0181291
2530.15	0.0176647
2539.79	0.017771
2549.43	0.0182794
2559.07	0.0166879
2568.72	0.0174407
2578.36	0.0182325
2588	0.0187725
2597.64	0.018012
2607.29	0.0194547
2616.93	0.0190981
2626.57	0.0194362
2636.21	0.0197632
2645.86	0.0188775
2655.5	0.0197605
2665.14	0.0189495
2674.78	0.0184626
2684.43	0.0191496
2694.07	0.019494
2703.71	0.0184625
2713.35	0.0196738
2722.99	0.0186118
2732.64	0.0205939
2742.28	0.0192463
2751.92	0.0201594
2761.56	0.0192699
2771.21	0.0212599
2780.85	0.020491
2790.49	0.0205851
2800.13	0.0213054
2809.78	0.0206784
2819.42	0.0207018
2829.06	0.0210766
2838.7	0.0213857
2848.34	0.0221185
2857.99	0.0202508
2867.63	0.0206572
2877.27	0.021783
2886.91	0.0230958
2896.56	0.0228115
2906.2	0.0223659
2915.84	0.0221777
2925.48	0.0214835
2935.13	0.0217965
2944.77	0.021726
2954.41	0.0225068
2964.05	0.0228726
2973.7	0.0219238
2983.34	0.0236379
2992.98	0.0255546
3002.62	0.0247024
3012.26	0.0230045
3021.91	0.0232527
3031.55	0.0249747
3041.19	0.0244133
3050.83	0.0252669
3060.48	0.0251717
3070.12	0.0255986
3079.76	0.0269384
3089.4	0.0277857
3099.05	0.0256477
3108.69	0.0263125
3118.33	0.0259517
3127.97	0.0272917
3137.61	0.0275423
3147.26	0.0275887
3156.9	0.0265632
3166.54	0.0269192
3176.18	0.0265965
3185.83	0.0277864
3195.47	0.0269754
3205.11	0.0292241
3214.75	0.0280154
3224.4	0.0275602
3234.04	0.0284917
3243.68	0.0281523
3253.32	0.0288683
3262.97	0.0294655
3272.61	0.0254912
3282.25	0.0279125
3291.89	0.0294796
3301.53	0.0295448
3311.18	0.0281647
3320.82	0.0270071
3330.46	0.0302934
3340.1	0.0275715
3349.75	0.0300015
3359.39	0.0324788
3369.03	0.0290123
3378.67	0.0279182
3388.32	0.0265132
3397.96	0.0279961
3407.6	0.0290847
3417.24	0.0270543
3426.89	0.028905
3436.53	0.0266214
3446.17	0.0290078
3455.81	0.0274764
3465.45	0.0316457
3475.1	0.0292833
3484.74	0.0298299
3494.38	0.0291033
3504.02	0.0290777
3513.67	0.0259536
3523.31	0.027102
3532.95	0.0302128
3542.59	0.0263439
3552.24	0.0247158
3561.88	0.0235392
3571.52	0.0252824
3581.16	0.0230942
3590.8	0.0241699
3600.45	0.0180634
3610.09	0.0217917
3619.73	0.023089
3629.37	0.0181983
3639.02	0.0205835
3648.66	0.0196307
3658.3	0.024775
3667.94	0.0196639
3677.59	0.019766
3687.23	0.0218703
3696.87	0.0221923
3706.51	0.0217515
3716.16	0.0204388
3725.8	0.0229479
3735.44	0.0238148
3745.08	0.0218173
3754.72	0.0286954
3764.37	0.0227705
3774.01	0.0232636
3783.65	0.0247642
3793.29	0.0228495
3802.94	0.0230436
3812.58	0.0195396
3822.22	0.0228087
3831.86	0.0221202
3841.51	0.0233618
3851.15	0.0259705
3860.79	0.0237545
3870.43	0.0239817
3880.07	0.0280458
3889.72	0.0239632
3899.36	0.024049
3909	0.0195197
3918.64	0.0276763
3928.29	0.0249649
3937.93	0.0280164
3947.57	0.0256187
3957.21	0.0255535
3966.86	0.025065
3976.5	0.0318872
3986.14	0.0251749
3995.78	0.0223885
