Measurement: Infrared, Infrared Data Processed
Mineral: Triphylite
Rruff sample: R050424
Ideal chemistry: LiFe^2+^PO_4_
Locality: Karibib, Namibia
Source: John Lucking
Description: Lime-green fine-grained massive
Measured chemistry: Li_1.00_(Fe^2+^_0.70_Mn^2+^_0.28_Mg_0.02_)_Î£=1_P_1.00_O_4_
x	intensity
399.193	0.112316
408.835	0.106422
418.477	0.112808
428.12	0.12432
437.762	0.130387
447.404	0.15052
457.047	0.184393
466.689	0.176387
476.331	0.156506
485.974	0.151149
495.616	0.150912
505.258	0.136267
514.901	0.125868
524.543	0.112818
534.185	0.111274
543.828	0.146853
553.47	0.125538
563.112	0.0866703
572.755	0.118202
582.397	0.0918192
592.039	0.0543086
601.682	0.0480607
611.324	0.0446131
620.966	0.0642248
630.609	0.147819
640.251	0.144453
649.893	0.080329
659.536	0.0313257
669.178	0.0228881
678.82	0.0203721
688.463	0.0193858
698.105	0.0194402
707.747	0.0205191
717.39	0.0206135
727.032	0.0210374
736.674	0.022094
746.317	0.0247334
755.959	0.0259607
765.601	0.0291362
775.244	0.0330199
784.886	0.041037
794.528	0.0518033
804.171	0.0463499
813.813	0.040961
823.455	0.0423255
833.098	0.0470506
842.74	0.0548662
852.382	0.0657142
862.025	0.0815051
871.667	0.100555
881.309	0.122812
890.952	0.150015
900.594	0.186868
910.236	0.232007
919.879	0.283187
929.521	0.33307
939.163	0.357002
948.806	0.349055
958.448	0.354686
968.09	0.34489
977.733	0.330877
987.375	0.312318
997.017	0.285517
1006.66	0.279892
1016.3	0.305122
1025.94	0.340695
1035.59	0.33406
1045.23	0.305597
1054.87	0.271687
1064.51	0.237021
1074.16	0.202014
1083.8	0.16755
1093.44	0.178862
1103.08	0.131222
1112.72	0.0926457
1122.37	0.0632942
1132.01	0.0744803
1141.65	0.095382
1151.3	0.0569922
1160.94	0.0287908
1170.58	0.0160919
1180.22	0.0117818
1189.86	0.00970269
1199.51	0.00783947
1209.15	0.00745347
1218.79	0.00654809
1228.43	0.00630105
1238.08	0.0056332
1247.72	0.00525745
1257.36	0.00506718
1267	0.00553103
1276.64	0.00585588
1286.29	0.00564866
1295.93	0.00571955
1305.57	0.00554605
1315.21	0.00578974
1324.86	0.00544217
1334.5	0.00534444
1344.14	0.00559148
1353.78	0.00547125
1363.43	0.00546161
1373.07	0.00566474
1382.71	0.00605581
1392.35	0.00676901
1401.99	0.00704626
1411.64	0.0077149
1421.28	0.007985
1430.92	0.00790562
1440.57	0.00846457
1450.21	0.00816207
1459.85	0.00852111
1469.49	0.00835555
1479.13	0.00809778
1488.78	0.00809317
1498.42	0.00797865
1508.06	0.00834708
1517.7	0.00863702
1527.35	0.0091623
1536.99	0.00973421
1546.63	0.00995234
1556.27	0.0105296
1565.91	0.0106422
1575.56	0.010789
1585.2	0.0111472
1594.84	0.0117521
1604.48	0.0119028
1614.13	0.0119446
1623.77	0.0120982
1633.41	0.0119138
1643.05	0.0118539
1652.7	0.0115757
1662.34	0.0114204
1671.98	0.0109788
1681.62	0.0103136
1691.27	0.00993782
1700.91	0.00951078
1710.55	0.00912735
1720.19	0.00956533
1729.84	0.00944915
1739.48	0.00805382
1749.12	0.00784007
1758.76	0.00768725
1768.4	0.00770655
1778.05	0.00803235
1787.69	0.00827375
1797.33	0.00797711
1806.97	0.00750871
1816.62	0.00726752
1826.26	0.00823847
1835.9	0.0075263
1845.54	0.00805729
1855.18	0.006217
1864.83	0.00643714
1874.47	0.00660679
1884.11	0.00711653
1893.75	0.00719713
1903.4	0.00703714
1913.04	0.00643714
1922.68	0.0067893
1932.32	0.00780274
1941.97	0.00292873
1951.61	0.00208982
1961.25	0.00140703
1970.89	0.00214556
1980.54	0.00123381
1990.18	0.0047227
1999.82	0.00480215
2009.46	0.00172871
2019.11	0.000854944
2028.75	0.00376432
2038.39	0.00386958
2048.03	0.00127212
2057.67	0.00514862
2067.32	0.00377328
2076.96	0.00704232
2086.6	0.00741455
2096.24	0.00385649
2105.89	0.00671631
2115.53	0.00842989
2125.17	0.00502541
2134.81	0.00153084
2144.45	0.00155796
2154.1	-0.000620391
2163.74	0.00615846
2173.38	0.00210426
2183.02	0.004949
2192.67	0.00707088
2202.31	0.0061715
2211.95	0.00631065
2221.59	0.0102801
2231.24	0.0131939
2240.88	0.0109711
2250.52	0.0116461
2260.16	0.0130521
2269.8	0.0120038
2279.45	0.0128928
2289.09	0.0141257
2298.73	0.0135487
2308.38	0.0144177
2318.02	0.0143477
2327.66	0.0150653
2337.3	0.0142107
2346.94	0.0147837
2356.59	0.0151468
2366.23	0.0152225
2375.87	0.01353
2385.51	0.0139894
2395.16	0.0144902
2404.8	0.0145772
2414.44	0.0141273
2424.08	0.0145394
2433.72	0.01584
2443.37	0.0138026
2453.01	0.0152097
2462.65	0.0157667
2472.29	0.0150543
2481.94	0.0153539
2491.58	0.0152075
2501.22	0.0150043
2510.86	0.0153412
2520.51	0.0154914
2530.15	0.0150348
2539.79	0.0159988
2549.43	0.0155388
2559.07	0.0164021
2568.72	0.0167072
2578.36	0.0172098
2588	0.0155091
2597.64	0.0156088
2607.29	0.0154669
2616.93	0.0177702
2626.57	0.0174025
2636.21	0.0189522
2645.86	0.0171133
2655.5	0.0178442
2665.14	0.0168802
2674.78	0.0183073
2684.43	0.0182003
2694.07	0.0178704
2703.71	0.0178186
2713.35	0.0179166
2722.99	0.0184768
2732.64	0.0191644
2742.28	0.0198086
2751.92	0.0196143
2761.56	0.0199373
2771.21	0.0194512
2780.85	0.0210696
2790.49	0.0201725
2800.13	0.0210775
2809.78	0.0215736
2819.42	0.021041
2829.06	0.0213812
2838.7	0.0234147
2848.34	0.0236399
2857.99	0.0224999
2867.63	0.0240958
2877.27	0.024185
2886.91	0.0229606
2896.56	0.0249259
2906.2	0.0245001
2915.84	0.0268006
2925.48	0.0253595
2935.13	0.0261494
2944.77	0.0242359
2954.41	0.026864
2964.05	0.0257069
2973.7	0.0253667
2983.34	0.0250667
2992.98	0.0259986
3002.62	0.0261358
3012.26	0.027809
3021.91	0.0270794
3031.55	0.0290436
3041.19	0.0281805
3050.83	0.0291122
3060.48	0.0277418
3070.12	0.0293537
3079.76	0.0311012
3089.4	0.029759
3099.05	0.0295255
3108.69	0.031888
3118.33	0.0317063
3127.97	0.0339686
3137.61	0.0336888
3147.26	0.0333175
3156.9	0.0333535
3166.54	0.0333019
3176.18	0.0354475
3185.83	0.035991
3195.47	0.0370234
3205.11	0.035403
3214.75	0.0369854
3224.4	0.038672
3234.04	0.0431054
3243.68	0.0440327
3253.32	0.0469332
3262.97	0.0525129
3272.61	0.0542154
3282.25	0.0501985
3291.89	0.0466129
3301.53	0.0414615
3311.18	0.0410306
3320.82	0.0403539
3330.46	0.0414533
3340.1	0.0360991
3349.75	0.0420418
3359.39	0.038691
3369.03	0.0378488
3378.67	0.0399274
3388.32	0.0377782
3397.96	0.0362918
3407.6	0.0396511
3417.24	0.0392435
3426.89	0.0372203
3436.53	0.0368545
3446.17	0.0361062
3455.81	0.0340967
3465.45	0.0328245
3475.1	0.0306666
3484.74	0.0327289
3494.38	0.0314597
3504.02	0.0296698
3513.67	0.0300726
3523.31	0.0276486
3532.95	0.0294033
3542.59	0.0287235
3552.24	0.0298706
3561.88	0.0258787
3571.52	0.024417
3581.16	0.0258434
3590.8	0.0210417
3600.45	0.0252246
3610.09	0.0237441
3619.73	0.018007
3629.37	0.021211
3639.02	0.0269941
3648.66	0.0242189
3658.3	0.0199299
3667.94	0.0274683
3677.59	0.0227955
3687.23	0.0254949
3696.87	0.0249877
3706.51	0.0230393
3716.16	0.0251278
3725.8	0.0208563
3735.44	0.0271645
3745.08	0.0201269
3754.72	0.0236752
3764.37	0.0277979
3774.01	0.0265964
3783.65	0.022623
3793.29	0.0266157
3802.94	0.0288438
3812.58	0.026292
3822.22	0.0270834
3831.86	0.0298225
3841.51	0.0241137
3851.15	0.0242443
3860.79	0.0265799
3870.43	0.0262777
3880.07	0.0265111
3889.72	0.0245465
3899.36	0.0294507
3909	0.0299118
3918.64	0.0282727
3928.29	0.028948
3937.93	0.0281198
3947.57	0.0247855
3957.21	0.029781
3966.86	0.0271783
3976.5	0.0335136
3986.14	0.0255049
3995.78	0.0294117
