Measurement: Infrared, Infrared Data Processed
Mineral: Triplite
Rruff sample: R050226
Ideal chemistry: Mn^2+^_2_(PO_4_)F
Locality: Fremont County, Colorado, USA
Source: Marcus Origlieri
Description: Reddish brown massive
Measured chemistry: (Mn^2+^_1.20_Mg_0.49_Fe^2+^_0.27_Ca_0.04_)_Σ=2_(P_1.00_O_4_)(F_0.95_(OH)_0.05_)_Σ=1_
x	intensity
50.1401	0.00633088
52.0686	0.0142998
53.9971	0.0187259
55.9255	0.024042
57.854	0.0325296
59.7825	0.0355868
61.7109	0.0299874
63.6394	0.0294001
65.5679	0.0286048
67.4963	0.0268402
69.4248	0.0271695
71.3533	0.0281962
73.2817	0.029524
75.2102	0.0296109
77.1387	0.0320687
79.0671	0.0363986
80.9956	0.0363877
82.9241	0.0352483
84.8525	0.0365471
86.781	0.0373964
88.7095	0.0372212
90.6379	0.0385226
92.5664	0.0397884
94.4948	0.040793
96.4233	0.0426998
98.3518	0.0443358
100.28	0.0423162
102.209	0.0420085
104.137	0.0428728
106.066	0.0423842
107.994	0.0435937
109.923	0.0457028
111.851	0.0468728
113.779	0.0470678
115.708	0.0472507
117.636	0.0476213
119.565	0.0487108
121.493	0.0502307
123.422	0.0505822
125.35	0.0500134
127.279	0.0498835
129.207	0.0508553
131.136	0.0516845
133.064	0.0539509
134.993	0.0568191
136.921	0.0583662
138.85	0.0589093
140.778	0.0597453
142.707	0.0610396
144.635	0.0620636
146.563	0.0628303
148.492	0.0640817
150.42	0.0649442
152.349	0.0657113
154.277	0.0662275
156.206	0.0667363
158.134	0.0666636
160.063	0.0670056
161.991	0.0670494
163.92	0.0670127
165.848	0.0675847
167.777	0.068796
169.705	0.0694897
171.633	0.0706622
173.562	0.0711579
175.49	0.0715202
177.419	0.0720598
179.347	0.0726801
181.276	0.0729646
183.204	0.072304
185.133	0.0720817
187.061	0.0728079
188.99	0.0726892
190.918	0.07294
192.847	0.0737868
194.775	0.0741833
196.704	0.0745005
198.632	0.0748402
200.56	0.0748698
202.489	0.0755124
204.417	0.0757706
206.346	0.0759074
208.274	0.0755892
210.203	0.0755514
212.131	0.0760033
214.06	0.0765673
215.988	0.076557
217.917	0.0764496
219.845	0.0767274
221.774	0.0774755
223.702	0.078286
225.631	0.0785335
227.559	0.0789813
229.488	0.0798799
231.416	0.0806707
233.344	0.0817508
235.273	0.0819511
237.201	0.0819308
239.13	0.0823602
241.058	0.0834514
242.987	0.0845238
244.915	0.0847883
246.844	0.0848185
248.772	0.0846967
250.701	0.0844858
252.629	0.0844703
254.558	0.0843584
256.486	0.0849001
258.414	0.0855991
260.343	0.0858082
262.271	0.0867118
264.2	0.0874979
266.128	0.0880401
268.057	0.0887111
269.985	0.0890858
271.914	0.089662
273.842	0.0903447
275.771	0.0910785
277.699	0.0917285
279.628	0.0921423
281.556	0.0924986
283.485	0.0930917
285.413	0.0934222
287.341	0.0938667
289.27	0.0942599
291.198	0.0945076
293.127	0.0947915
295.055	0.0951617
296.984	0.0953909
298.912	0.0954804
300.841	0.0954504
302.769	0.0960094
304.698	0.0960903
306.626	0.095853
308.555	0.0961256
310.483	0.0963061
312.411	0.0965516
314.34	0.096775
316.269	0.0969171
318.197	0.0967865
320.125	0.0965485
322.054	0.0962017
323.982	0.0957073
325.911	0.0953016
327.839	0.0947415
329.768	0.0943814
331.696	0.0938168
333.625	0.0929921
335.553	0.0921227
337.482	0.0915457
339.41	0.0911877
341.339	0.090963
343.267	0.0907134
345.195	0.090371
347.124	0.090388
349.052	0.0904024
350.981	0.0902921
352.909	0.0905636
354.838	0.0904514
356.766	0.0902478
358.695	0.0905857
360.623	0.0906978
362.552	0.0903493
364.48	0.0900609
366.409	0.0899143
368.337	0.0894694
370.265	0.0893759
372.194	0.0892962
374.122	0.0891697
376.051	0.0888046
377.979	0.0879971
379.908	0.0869611
381.836	0.0863153
383.765	0.085462
385.693	0.0843939
387.622	0.0831363
389.55	0.0820376
391.479	0.0810049
393.407	0.0795747
395.336	0.0779952
397.264	0.0767942
399.192	0.075807
401.121	0.0746219
403.049	0.07336
404.978	0.072057
406.906	0.0709129
408.835	0.0698808
410.763	0.0687459
412.692	0.0678148
414.62	0.0668182
416.549	0.0656766
418.477	0.0644558
420.406	0.0637275
422.334	0.0630022
424.262	0.0625881
426.191	0.0621955
428.12	0.0618743
430.048	0.0618442
431.976	0.0620299
433.905	0.0624267
435.833	0.0631163
437.762	0.063672
439.69	0.0647199
441.619	0.066375
443.547	0.0683096
445.476	0.0700894
447.404	0.0720759
449.333	0.0735588
451.261	0.0744531
453.19	0.0749313
455.118	0.0748247
457.046	0.0742609
458.975	0.0733801
460.903	0.0720023
462.832	0.0702716
464.76	0.069107
466.689	0.0683846
468.617	0.0674835
470.546	0.0662955
472.474	0.0649644
474.403	0.0640145
476.331	0.06329
478.26	0.0626991
480.188	0.0619051
482.116	0.0611792
484.045	0.0604055
485.974	0.059651
487.902	0.0586252
489.83	0.0576122
491.759	0.0569219
493.687	0.0564742
495.616	0.0558934
497.544	0.0553725
499.473	0.0549746
501.401	0.0544925
503.33	0.0539799
505.258	0.0539881
507.187	0.0539584
509.115	0.0532646
511.043	0.0527992
512.972	0.0527937
514.9	0.0528705
516.829	0.053243
518.757	0.0535396
520.686	0.0541161
522.614	0.0550225
524.543	0.0558285
526.471	0.0568432
528.4	0.0578672
530.328	0.0592139
532.257	0.0606949
534.185	0.0622812
536.114	0.064621
538.042	0.0667262
539.971	0.068792
541.899	0.0716763
543.827	0.0747269
545.756	0.0778859
547.684	0.0817677
549.613	0.0861545
551.541	0.0909655
553.47	0.0960648
555.398	0.102008
557.327	0.108289
559.255	0.114245
561.184	0.120622
563.112	0.127217
565.041	0.133397
566.969	0.138891
568.898	0.142985
570.826	0.146031
572.755	0.148613
574.683	0.150471
576.611	0.150899
578.54	0.14937
580.468	0.146086
582.397	0.142412
584.325	0.138387
586.254	0.134533
588.182	0.130559
590.111	0.126375
592.039	0.122338
593.968	0.118655
595.896	0.115023
597.824	0.111382
599.753	0.108065
601.682	0.10486
603.61	0.101669
605.538	0.0987847
607.467	0.0956636
609.395	0.0919559
611.324	0.0879308
613.252	0.084762
615.181	0.0821202
617.109	0.0800905
619.038	0.0785924
620.966	0.0774283
622.894	0.0758448
624.823	0.0748633
626.751	0.074311
628.68	0.0737496
630.608	0.072286
632.537	0.0700035
634.465	0.0676551
636.394	0.0657417
638.322	0.0637191
640.251	0.0620662
642.179	0.061132
644.108	0.0601575
646.036	0.0593983
647.965	0.058834
649.893	0.0585362
651.822	0.0585089
653.75	0.0584191
655.678	0.0582524
657.607	0.0576803
659.535	0.0568688
661.464	0.0561423
663.392	0.0554785
665.321	0.0548998
667.249	0.0542053
669.178	0.0533082
671.106	0.0528364
673.035	0.052987
674.963	0.0526873
676.892	0.0524995
678.82	0.0528811
680.749	0.0529159
682.677	0.052669
684.606	0.0519266
686.534	0.0518117
688.462	0.0522459
690.391	0.0519395
692.319	0.0523816
694.248	0.0528108
696.176	0.05307
698.105	0.0542899
700.033	0.0540102
