Measurement: Infrared, Infrared Data Processed
Mineral: Triplite
Rruff sample: R050186
Ideal chemistry: Mn^2+^_2_(PO_4_)F
Locality: Wuzhou, Guangxi Autonomous Region, China
Source: John Lucking
Description: Orangish red fragments
Measured chemistry: (Mn^2+^_1.60_Fe^2+^_0.21_Mg_0.15_Ca_0.04_)_Σ=2_(P_1.00_O_4_)(F_0.80_(OH)_0.20_)_Σ=1_
x	intensity
50.1401	0.00797806
52.0686	0.0137601
53.9971	0.0168837
55.9255	0.0173108
57.854	0.0121183
59.7825	0.0143415
61.7109	0.0128127
63.6394	0.0132944
65.5679	0.0112923
67.4963	0.0101261
69.4248	0.0109508
71.3533	0.0148369
73.2817	0.0165278
75.2102	0.016027
77.1387	0.0155851
79.0671	0.015033
80.9956	0.0165064
82.9241	0.0183166
84.8525	0.0185523
86.781	0.0189433
88.7095	0.0195234
90.6379	0.0203599
92.5664	0.0201026
94.4948	0.0197344
96.4233	0.0206424
98.3518	0.022338
100.28	0.0225954
102.209	0.0227138
104.137	0.0236005
106.066	0.0242782
107.994	0.0248301
109.923	0.0262508
111.851	0.0266343
113.779	0.0264783
115.708	0.0268645
117.636	0.0264374
119.565	0.0265353
121.493	0.027799
123.422	0.0269647
125.35	0.0269895
127.279	0.0292754
129.207	0.0304854
131.136	0.0309716
133.064	0.0322421
134.993	0.0331694
136.921	0.0340617
138.85	0.0346909
140.778	0.0346545
142.707	0.0349795
144.635	0.0349064
146.563	0.034729
148.492	0.0356104
150.42	0.0362814
152.349	0.0361431
154.277	0.0358049
156.206	0.0356939
158.134	0.0357952
160.063	0.0362758
161.991	0.037132
163.92	0.0378391
165.848	0.038444
167.777	0.0388953
169.705	0.0391432
171.633	0.0392019
173.562	0.039793
175.49	0.040343
177.419	0.0400487
179.347	0.0400962
181.276	0.0405853
183.204	0.0406174
185.133	0.0406577
187.061	0.0412323
188.99	0.0413194
190.918	0.04122
192.847	0.0413284
194.775	0.0412561
196.704	0.041338
198.632	0.0414528
200.56	0.0417207
202.489	0.0418892
204.417	0.0412466
206.346	0.041147
208.274	0.0413865
210.203	0.0409272
212.131	0.0403924
214.06	0.0403136
215.988	0.0405756
217.917	0.0412935
219.845	0.0421771
221.774	0.0431291
223.702	0.0437885
225.631	0.0446206
227.559	0.0456755
229.488	0.0460549
231.416	0.0468444
233.344	0.0481543
235.273	0.0488849
237.201	0.0492599
239.13	0.0495356
241.058	0.0495944
242.987	0.0497462
244.915	0.0497003
246.844	0.0492156
248.772	0.0487898
250.701	0.048037
252.629	0.0484513
254.558	0.0487597
256.486	0.0481414
258.414	0.0480218
260.343	0.0479714
262.271	0.0481356
264.2	0.0491052
266.128	0.0500078
268.057	0.0501373
269.985	0.0506142
271.914	0.051279
273.842	0.0519951
275.771	0.0530812
277.699	0.0539691
279.628	0.0540497
281.556	0.0541351
283.485	0.0541809
285.413	0.0536065
287.341	0.0532588
289.27	0.0531346
291.198	0.0526932
293.127	0.0526435
295.055	0.0529791
296.984	0.0531465
298.912	0.0536505
300.841	0.054441
302.769	0.0551311
304.698	0.0549595
306.626	0.0549939
308.555	0.0555299
310.483	0.0558563
312.411	0.0557815
314.34	0.0557103
316.269	0.0558051
318.197	0.0559093
320.125	0.0557928
322.054	0.0555328
323.982	0.0555929
325.911	0.0555426
327.839	0.0554446
329.768	0.0552229
331.696	0.0550235
333.625	0.0548297
335.553	0.0547929
337.482	0.0546565
339.41	0.0545453
341.339	0.0543044
343.267	0.0539209
345.195	0.0537178
347.124	0.0538335
349.052	0.0541884
350.981	0.0544542
352.909	0.0544354
354.838	0.0540667
356.766	0.0541275
358.695	0.0539102
360.623	0.0536169
362.552	0.0538935
364.48	0.0536632
366.409	0.0529817
368.337	0.0526374
370.265	0.0523124
372.194	0.0519048
374.122	0.0517258
376.051	0.0511588
377.979	0.0501814
379.908	0.0493398
381.836	0.0486653
383.765	0.0479187
385.693	0.0471541
387.622	0.0462251
389.55	0.0456618
391.479	0.0451932
393.407	0.0447942
395.336	0.0444816
397.264	0.0441211
399.192	0.0436429
401.121	0.043394
403.049	0.0429759
404.978	0.0424278
406.906	0.0418453
408.835	0.0413653
410.763	0.0410406
412.692	0.0405027
414.62	0.0398479
416.549	0.039627
418.477	0.0398002
420.406	0.0399284
422.334	0.0400429
424.262	0.0402861
426.191	0.0409999
428.12	0.0422618
430.048	0.0435595
431.976	0.0448879
433.905	0.0463706
435.833	0.0477254
437.762	0.0490526
439.69	0.0503005
441.619	0.0505207
443.547	0.0502596
445.476	0.0497287
447.404	0.0489552
449.333	0.0476393
451.261	0.0465189
453.19	0.045797
455.118	0.0443617
457.046	0.0431143
458.975	0.0426808
460.903	0.042182
462.832	0.0416894
464.76	0.0413265
466.689	0.0414111
468.617	0.0417456
470.546	0.0415759
472.474	0.0412063
474.403	0.0411926
476.331	0.0413709
478.26	0.0413048
480.188	0.0408257
482.116	0.0403908
484.045	0.0400995
485.974	0.0401523
487.902	0.0403258
489.83	0.0405737
491.759	0.0405994
493.687	0.0403098
495.616	0.0403097
497.544	0.0406348
499.473	0.0408851
501.401	0.0413178
503.33	0.0416222
505.258	0.041958
507.187	0.0420913
509.115	0.0418728
511.043	0.0416649
512.972	0.0416342
514.9	0.0421473
516.829	0.0430106
518.757	0.04379
520.686	0.0440705
522.614	0.0444126
524.543	0.0449194
526.471	0.0454625
528.4	0.0461624
530.328	0.0466403
532.257	0.0473833
534.185	0.0483253
536.114	0.0491809
538.042	0.0499993
539.971	0.0511024
541.899	0.0523215
543.827	0.0537345
545.756	0.0554512
547.684	0.0577121
549.613	0.0599567
551.541	0.0618878
553.47	0.063736
555.398	0.0659603
557.327	0.0685932
559.255	0.0712962
561.184	0.0739136
563.112	0.0764947
565.041	0.0789342
566.969	0.0813991
568.898	0.0832466
570.826	0.0848127
572.755	0.0858085
574.683	0.0861281
576.611	0.0860821
578.54	0.0848366
580.468	0.0826549
582.397	0.0806526
584.325	0.0780171
586.254	0.0751246
588.182	0.0720743
590.111	0.0695148
592.039	0.0679017
593.968	0.0666798
595.896	0.0658272
597.824	0.0649237
599.753	0.0635898
601.682	0.0617023
603.61	0.0594479
605.538	0.0573766
607.467	0.0553564
609.395	0.0532793
611.324	0.051838
613.252	0.0512404
615.181	0.0507128
617.109	0.0503672
619.038	0.050761
620.966	0.0506965
622.894	0.0494045
624.823	0.0487175
626.751	0.0489418
628.68	0.049126
630.608	0.0489813
632.537	0.0480694
634.465	0.0464639
636.394	0.0451142
638.322	0.0442075
640.251	0.0436137
642.179	0.0433002
644.108	0.0433012
646.036	0.0433497
647.965	0.0434461
649.893	0.0434937
651.822	0.0434294
653.75	0.0431226
655.678	0.0429983
657.607	0.0431972
659.535	0.0434588
661.464	0.0438916
663.392	0.0445487
665.321	0.0446277
667.249	0.0452918
669.178	0.0462319
671.106	0.0463568
673.035	0.0464736
674.963	0.0472257
676.892	0.0480409
678.82	0.0486325
680.749	0.0485558
682.677	0.0483979
684.606	0.0484844
686.534	0.0485507
688.462	0.0484978
690.391	0.0487442
692.319	0.0497927
694.248	0.0512103
696.176	0.0524684
698.105	0.0533973
700.033	0.0537013
