Measurement: Infrared, Infrared Data Processed
Mineral: Tritomite-(Ce)
Rruff sample: R060046
Ideal chemistry: Ce_5_(SiO_4_,BO_4_)_3_(OH,O)
Locality: Langesundfjord, Norway
Source: University of Arizona Mineral Museum
Description: Aggregate of orange coarse amorphous fragments
Measured chemistry: (Ca_1.90_Sr_0.10_)_Σ=2_(Ce_0.91_La_0.91_Th_0.75_Zr_0.20_[box]_0.13_Fe^2+^_0.10_)_Σ=3_((SiO_4_)_2.45_(BO_4_)_0.55_)_Σ=3_(OH)
x	intensity
399.193	0.128263
408.835	0.148319
418.477	0.141226
428.12	0.136726
437.762	0.144602
447.404	0.142414
457.047	0.144838
466.689	0.14969
476.331	0.144583
485.974	0.142486
495.616	0.137851
505.258	0.131669
514.901	0.126163
524.543	0.12009
534.185	0.114631
543.828	0.110838
553.47	0.106841
563.112	0.101061
572.755	0.0926352
582.397	0.0893122
592.039	0.0819443
601.682	0.0805528
611.324	0.077186
620.966	0.0769096
630.609	0.0743677
640.251	0.0749479
649.893	0.07538
659.536	0.0767851
669.178	0.0785954
678.82	0.0796039
688.463	0.0829902
698.105	0.0857688
707.747	0.0876343
717.39	0.0889622
727.032	0.0904067
736.674	0.0893287
746.317	0.0871837
755.959	0.0859749
765.601	0.0880413
775.244	0.0930026
784.886	0.100007
794.528	0.109033
804.171	0.12107
813.813	0.134685
823.455	0.149658
833.098	0.164727
842.74	0.177395
852.382	0.188793
862.025	0.194403
871.667	0.198674
881.309	0.204615
890.952	0.209273
900.594	0.213013
910.236	0.214741
919.879	0.213851
929.521	0.211131
939.163	0.208745
948.806	0.205262
958.448	0.201306
968.09	0.195428
977.733	0.188824
987.375	0.17928
997.017	0.167898
1006.66	0.156368
1016.3	0.143628
1025.94	0.130863
1035.59	0.118965
1045.23	0.107418
1054.87	0.0963338
1064.51	0.0865975
1074.16	0.0771564
1083.8	0.069599
1093.44	0.0623376
1103.08	0.0565997
1112.72	0.0517922
1122.37	0.0479293
1132.01	0.045043
1141.65	0.0436409
1151.3	0.0434437
1160.94	0.0414844
1170.58	0.0411959
1180.22	0.0414201
1189.86	0.0407373
1199.51	0.0406638
1209.15	0.0399432
1218.79	0.0396191
1228.43	0.0387344
1238.08	0.0379311
1247.72	0.0370037
1257.36	0.0370664
1267	0.0372934
1276.64	0.0383158
1286.29	0.038193
1295.93	0.039441
1305.57	0.0401906
1315.21	0.0415854
1324.86	0.0423061
1334.5	0.0431732
1344.14	0.0442118
1353.78	0.0446795
1363.43	0.0456031
1373.07	0.0466104
1382.71	0.0473423
1392.35	0.0473743
1401.99	0.0463492
1411.64	0.045497
1421.28	0.0431538
1430.92	0.0409455
1440.57	0.0389323
1450.21	0.0368006
1459.85	0.0364956
1469.49	0.0374826
1479.13	0.038632
1488.78	0.0389695
1498.42	0.0380214
1508.06	0.0370361
1517.7	0.0347586
1527.35	0.0319894
1536.99	0.0297444
1546.63	0.0269658
1556.27	0.0246565
1565.91	0.0231738
1575.56	0.021138
1585.2	0.0201497
1594.84	0.0206012
1604.48	0.0209652
1614.13	0.0210173
1623.77	0.021621
1633.41	0.0212284
1643.05	0.0215538
1652.7	0.0207645
1662.34	0.0204192
1671.98	0.019207
1681.62	0.0180264
1691.27	0.0166634
1700.91	0.0163108
1710.55	0.0152811
1720.19	0.0156705
1729.84	0.0159721
1739.48	0.0145934
1749.12	0.0142942
1758.76	0.0142439
1768.4	0.0145022
1778.05	0.0136782
1787.69	0.0148062
1797.33	0.0148173
1806.97	0.0146646
1816.62	0.0139079
1826.26	0.0137541
1835.9	0.0148455
1845.54	0.0142878
1855.18	0.0141454
1864.83	0.0138916
1874.47	0.0140524
1884.11	0.015935
1893.75	0.013784
1903.4	0.0136306
1913.04	0.0111242
1922.68	0.0138865
1932.32	0.0126229
1941.97	0.0119646
1951.61	0.0108247
1961.25	0.0093164
1970.89	0.00631952
1980.54	0.0130681
1990.18	0.0124356
1999.82	0.0105252
2009.46	0.00973405
2019.11	0.0105652
2028.75	0.00776434
2038.39	0.0143143
2048.03	0.0118699
2057.67	0.0157129
2067.32	0.0164867
2076.96	0.0161754
2086.6	0.0171754
2096.24	0.014667
2105.89	0.0176138
2115.53	0.0158298
2125.17	0.0144261
2134.81	0.0150983
2144.45	0.0174544
2154.1	0.00985508
2163.74	0.0200856
2173.38	0.0163555
2183.02	0.0217905
2192.67	0.0221754
2202.31	0.0203223
2211.95	0.0200084
2221.59	0.0188023
2231.24	0.0231021
2240.88	0.0186393
2250.52	0.0207941
2260.16	0.0227152
2269.8	0.0227519
2279.45	0.0246855
2289.09	0.0237629
2298.73	0.0248378
2308.38	0.0248649
2318.02	0.0271374
2327.66	0.0255424
2337.3	0.0252416
2346.94	0.0247141
2356.59	0.0250681
2366.23	0.0246418
2375.87	0.0235398
2385.51	0.0226944
2395.16	0.0246387
2404.8	0.0243163
2414.44	0.0239429
2424.08	0.0250054
2433.72	0.0266637
2443.37	0.0248458
2453.01	0.0244753
2462.65	0.0257015
2472.29	0.0270189
2481.94	0.0265592
2491.58	0.0276188
2501.22	0.0253523
2510.86	0.0278717
2520.51	0.0282426
2530.15	0.0288323
2539.79	0.0282185
2549.43	0.0284763
2559.07	0.0285491
2568.72	0.0285842
2578.36	0.0286979
2588	0.0303403
2597.64	0.0296249
2607.29	0.0300906
2616.93	0.031127
2626.57	0.0320146
2636.21	0.0325583
2645.86	0.0331843
2655.5	0.0328861
2665.14	0.0326956
2674.78	0.0323875
2684.43	0.0336024
2694.07	0.0332771
2703.71	0.0351623
2713.35	0.0356673
2722.99	0.0353118
2732.64	0.0368536
2742.28	0.0361823
2751.92	0.0379112
2761.56	0.0378456
2771.21	0.0397135
2780.85	0.0384927
2790.49	0.0392784
2800.13	0.0406423
2809.78	0.0392971
2819.42	0.0408277
2829.06	0.0419841
2838.7	0.0440463
2848.34	0.0435917
2857.99	0.0432059
2867.63	0.0433707
2877.27	0.0466292
2886.91	0.0443588
2896.56	0.0463601
2906.2	0.0462699
2915.84	0.0482861
2925.48	0.0503385
2935.13	0.0505253
2944.77	0.0496226
2954.41	0.0495748
2964.05	0.0513412
2973.7	0.0513055
2983.34	0.0504674
2992.98	0.0512804
3002.62	0.0521583
3012.26	0.0509354
3021.91	0.0509954
3031.55	0.052897
3041.19	0.0548459
3050.83	0.0550047
3060.48	0.0554762
3070.12	0.0537383
3079.76	0.0560588
3089.4	0.0556335
3099.05	0.0579301
3108.69	0.0558137
3118.33	0.05751
3127.97	0.0577402
3137.61	0.0576726
3147.26	0.0582334
3156.9	0.0596228
3166.54	0.0578651
3176.18	0.0618476
3185.83	0.0614223
3195.47	0.0623009
3205.11	0.0624813
3214.75	0.0617158
3224.4	0.0605881
3234.04	0.0606585
3243.68	0.0599263
3253.32	0.0598666
3262.97	0.0609731
3272.61	0.0624877
3282.25	0.0617342
3291.89	0.0624834
3301.53	0.0626887
3311.18	0.0634754
3320.82	0.0612432
3330.46	0.0627132
3340.1	0.0617914
3349.75	0.0641651
3359.39	0.0613667
3369.03	0.0643299
3378.67	0.0623469
3388.32	0.061004
3397.96	0.065022
3407.6	0.061163
3417.24	0.0604191
3426.89	0.0584308
3436.53	0.0572626
3446.17	0.0579502
3455.81	0.0614179
3465.45	0.057166
3475.1	0.0598982
3484.74	0.0533705
3494.38	0.0566624
3504.02	0.052645
3513.67	0.0534167
3523.31	0.0505189
3532.95	0.048
3542.59	0.04867
3552.24	0.0484806
3561.88	0.0432576
3571.52	0.0454688
3581.16	0.0377719
3590.8	0.0340693
3600.45	0.0348647
3610.09	0.0305287
3619.73	0.033379
3629.37	0.0246249
3639.02	0.0245444
3648.66	0.0223233
3658.3	0.022106
3667.94	0.0193745
3677.59	0.0231438
3687.23	0.0212994
3696.87	0.0265367
3706.51	0.0249315
3716.16	0.0236337
3725.8	0.0230773
3735.44	0.0250972
3745.08	0.0205774
3754.72	0.0217912
3764.37	0.0236033
3774.01	0.0244264
3783.65	0.0262285
3793.29	0.0279286
3802.94	0.0268076
3812.58	0.0230447
3822.22	0.0233131
3831.86	0.0220964
3841.51	0.0260415
3851.15	0.0272317
3860.79	0.0242426
3870.43	0.0238763
3880.07	0.0299467
3889.72	0.0286599
3899.36	0.0207269
3909	0.0272318
3918.64	0.0257406
3928.29	0.0253263
3937.93	0.0250215
3947.57	0.0212191
3957.21	0.0243445
3966.86	0.0260834
3976.5	0.0222364
3986.14	0.0240362
3995.78	0.0282269
