Measurement: Infrared, Infrared Data Processed
Mineral: Trona
Rruff sample: R050228
Ideal chemistry: Na_3_(HCO_3_)(CO_3_)2H_2_O
Locality: Stauffer mine, Green River, Wyoming, USA
Source: Marcus Origlieri
Description: Aggregate of pale yellowish brown flattened crystals
Measured chemistry: Na_3.00_(CO_3_)(HCO_3_)Â·2H_2_O ; CO2 and H not measured but estimated by stoichiometry. The lighter inclusion is dolomite.
x	intensity
374.123	0.106091
383.765	0.0767256
393.407	0.0958761
403.05	0.0782349
412.692	0.0795276
422.334	0.0837557
431.976	0.0848691
441.619	0.084927
451.261	0.0963532
460.904	0.0978796
470.546	0.103598
480.188	0.106848
489.83	0.117595
499.473	0.126736
509.115	0.133223
518.758	0.144772
528.4	0.15409
538.042	0.168352
547.684	0.179365
557.327	0.190626
566.969	0.18926
576.611	0.198199
586.254	0.192365
595.896	0.187195
605.538	0.169839
615.181	0.150279
624.823	0.134008
634.466	0.126879
644.108	0.125128
653.75	0.116939
663.393	0.0934104
673.035	0.0847694
682.677	0.078997
692.319	0.0526787
701.962	0.0362465
711.604	0.0477866
721.246	0.0554671
730.889	0.0621541
740.531	0.066798
750.173	0.0747595
759.816	0.0844893
769.458	0.0941438
779.101	0.103062
788.743	0.109437
798.385	0.11296
808.028	0.111624
817.67	0.113818
827.312	0.12101
836.955	0.134842
846.597	0.194015
856.239	0.123228
865.881	0.0975114
875.524	0.0988647
885.166	0.100107
894.808	0.102215
904.451	0.102802
914.093	0.104526
923.736	0.10585
933.378	0.107843
943.02	0.108388
952.663	0.109465
962.305	0.112368
971.947	0.114122
981.59	0.115153
991.232	0.114195
1000.87	0.114041
1010.52	0.114685
1020.16	0.111484
1029.8	0.110707
1039.44	0.103744
1049.09	0.0951066
1058.73	0.126285
1068.37	0.123451
1078.01	0.120078
1087.65	0.120615
1097.3	0.117987
1106.94	0.116667
1116.58	0.115491
1126.22	0.115283
1135.87	0.11599
1145.51	0.11712
1155.15	0.118053
1164.79	0.120875
1174.44	0.124044
1184.08	0.123248
1193.72	0.120016
1203.36	0.115769
1213.01	0.108829
1222.65	0.105156
1232.29	0.100363
1241.93	0.0977132
1251.58	0.0933172
1261.22	0.0906701
1270.86	0.0908411
1280.5	0.088112
1290.14	0.0854333
1299.79	0.0855736
1309.43	0.0848381
1319.07	0.0837245
1328.71	0.0831839
1338.36	0.0833261
1348	0.083403
1357.64	0.0845199
1367.28	0.0857178
1376.92	0.0874415
1386.57	0.0884209
1396.21	0.0906773
1405.85	0.0953944
1415.49	0.104501
1425.14	0.11138
1434.78	0.124737
1444.42	0.138003
1454.06	0.144822
1463.71	0.139307
1473.35	0.120263
1482.99	0.0968317
1492.63	0.075967
1502.28	0.0643202
1511.92	0.0562505
1521.56	0.0506522
1531.2	0.049314
1540.85	0.0469499
1550.49	0.0452007
1560.13	0.0414304
1569.77	0.0399559
1579.41	0.0420356
1589.06	0.0415309
1598.7	0.0439347
1608.34	0.0483016
1617.98	0.0536392
1627.63	0.0606946
1637.27	0.0673364
1646.91	0.0736617
1656.55	0.0782743
1666.19	0.0842039
1675.84	0.0935519
1685.48	0.0975105
1695.12	0.0930956
1704.77	0.088531
1714.41	0.0803233
1724.05	0.073786
1733.69	0.0667952
1743.33	0.0629054
1752.98	0.0573589
1762.62	0.050144
1772.26	0.04739
1781.9	0.046224
1791.55	0.0417538
1801.19	0.0399885
1810.83	0.0383923
1820.47	0.0368007
1830.12	0.035717
1839.76	0.0325601
1849.4	0.030778
1859.04	0.0351261
1868.68	0.0293762
1878.33	0.0282145
1887.97	0.0266983
1897.61	0.0284392
1907.25	0.0267177
1916.9	0.0255822
1926.54	0.0230061
1936.18	0.0214937
1945.82	0.0249858
1955.46	0.0274618
1965.11	0.0254387
1974.75	0.0304863
1984.39	0.0254091
1994.04	0.013925
2003.68	0.0219383
2013.32	0.0181761
2022.96	0.0176617
2032.6	0.0242549
2042.25	0.0212693
2051.89	0.0224608
2061.53	0.0216873
2071.17	0.0162945
2080.82	0.0190662
2090.46	0.0260578
2100.1	0.0168864
2109.74	0.0228207
2119.39	0.0193969
2129.03	0.0186077
2138.67	0.0193951
2148.31	0.0211535
2157.95	0.019379
2167.6	0.0270106
2177.24	0.015515
2186.88	0.0240607
2196.52	0.0124943
2206.17	0.0149089
2215.81	0.0179662
2225.45	0.0227472
2235.09	0.024048
2244.74	0.0195915
2254.38	0.0222584
2264.02	0.0237489
2273.66	0.0166684
2283.3	0.0201693
2292.95	0.0186492
2302.59	0.0226139
2312.23	0.0153203
2321.87	0.0200404
2331.52	0.0193409
2341.16	0.0147329
2350.8	0.0190651
2360.44	0.0192053
2370.09	0.0178419
2379.73	0.0159284
2389.37	0.0171148
2399.01	0.0134817
2408.66	0.0162404
2418.3	0.0147232
2427.94	0.0184078
2437.58	0.0201406
2447.22	0.0223268
2456.87	0.0191917
2466.51	0.0163667
2476.15	0.02089
2485.79	0.0190635
2495.44	0.0159885
2505.08	0.0188367
2514.72	0.0216934
2524.36	0.0242739
2534.01	0.0199044
2543.65	0.0185468
2553.29	0.0208307
2562.93	0.0183548
2572.57	0.0175472
2582.22	0.0192506
2591.86	0.0194057
2601.5	0.0177562
2611.14	0.0150592
2620.79	0.0210655
2630.43	0.0179321
2640.07	0.0189403
2649.71	0.0219183
2659.36	0.0195474
2669	0.0178299
2678.64	0.0202243
2688.28	0.0175814
2697.93	0.0208484
2707.57	0.017947
2717.21	0.0211859
2726.85	0.0232795
2736.49	0.0222444
2746.14	0.0227733
2755.78	0.0242363
2765.42	0.0229808
2775.06	0.0245916
2784.71	0.0236663
2794.35	0.0239614
2803.99	0.0273806
2813.63	0.0282795
2823.28	0.0299451
2832.92	0.0275461
2842.56	0.0324091
2852.2	0.0290816
2861.84	0.0316483
2871.49	0.0351302
2881.13	0.0329059
2890.77	0.0331206
2900.41	0.037072
2910.06	0.0333782
2919.7	0.0426457
2929.34	0.0400116
2938.98	0.0426597
2948.62	0.0471016
2958.27	0.0469715
2967.91	0.0462041
2977.55	0.0510842
2987.2	0.0508602
2996.84	0.0546385
3006.48	0.0606241
3016.12	0.0601271
3025.76	0.0596395
3035.41	0.0637728
3045.05	0.0577863
3054.69	0.0585347
3064.33	0.0605652
3073.98	0.0582026
3083.62	0.056135
3093.26	0.0519706
3102.9	0.0585153
3112.55	0.053796
3122.19	0.0479469
3131.83	0.0521135
3141.47	0.050224
3151.11	0.0445494
3160.76	0.0496366
3170.4	0.0492356
3180.04	0.0474906
3189.68	0.0487841
3199.33	0.0433482
3208.97	0.0490428
3218.61	0.042028
3228.25	0.0443683
3237.9	0.0414781
3247.54	0.0414069
3257.18	0.0398199
3266.82	0.0406831
3276.47	0.0352802
3286.11	0.0388665
3295.75	0.0478955
3305.39	0.0473126
3315.03	0.0386042
3324.68	0.042927
3334.32	0.0472655
3343.96	0.0429512
3353.6	0.0462348
3363.25	0.0503985
3372.89	0.045931
3382.53	0.0466124
3392.17	0.0539997
3401.82	0.0572646
3411.46	0.0630178
3421.1	0.0754381
3430.74	0.0848887
3440.39	0.0921076
3450.03	0.0961125
3459.67	0.112725
3469.31	0.104791
3478.95	0.0852818
3488.6	0.0801782
3498.24	0.0703912
3507.88	0.0681874
3517.52	0.0567105
3527.17	0.0522789
3536.81	0.0408144
3546.45	0.0332329
3556.09	0.0314477
3565.74	0.0284047
3575.38	0.021028
3585.02	0.0221525
3594.66	0.0133229
3604.3	0.0176431
3613.95	0.00947127
3623.59	0.00982612
3633.23	0.0143582
3642.87	0.0159721
3652.52	0.014454
3662.16	0.0109363
3671.8	0.00897843
3681.44	0.0158701
3691.09	0.0135462
3700.73	0.00933476
3710.37	0.0130821
3720.01	0.00715078
3729.66	0.0112328
3739.3	0.0106075
3748.94	0.00858217
3758.58	0.0161842
3768.22	0.0153541
3777.87	0.013843
3787.51	0.0114577
3797.15	0.00532466
3806.79	0.0069497
3816.44	0.0140315
3826.08	0.00824859
3835.72	0.0163561
3845.36	0.0119871
3855.01	0.0123379
3864.65	0.0177673
3874.29	0.00486054
3883.93	0.00322809
3893.57	0.0160302
3903.22	0.0145007
3912.86	0.00738879
3922.5	0.00727472
3932.14	0.0144995
3941.79	0.0120142
3951.43	0.00940256
3961.07	0.0138583
3970.71	0.00937488
3980.36	0.0138312
3990	0.00805428
3999.64	0.00871291
