Measurement: Infrared, Infrared Data Processed
Mineral: Tsaregorodtsevite
Rruff sample: R060033
Ideal chemistry: N(CH_3_)_4_Si_4_(SiAl)O_12_
Locality: Yaruta, Man-Hambo Mountain Range, North Urals, Russia
Source: University of Arizona Mineral Museum
Description: Tan colored pseudo cubo-dodecahedra
Measured chemistry: N(CH_3_)_4_Si_4.00_(Si_1.00_Al_1.00_)_Î£=2_O_12_
x	intensity
374.123	0.259776
383.765	0.263744
393.407	0.303956
403.05	0.319186
412.692	0.334346
422.334	0.349703
431.976	0.338917
441.619	0.283699
451.261	0.241693
460.904	0.159328
470.546	0.111572
480.188	0.0745075
489.83	0.0442536
499.473	0.0233392
509.115	0.0185256
518.758	0.0176634
528.4	0.0185096
538.042	0.0182398
547.684	0.0177603
557.327	0.0180059
566.969	0.0200975
576.611	0.0207588
586.254	0.0210613
595.896	0.0212872
605.538	0.0208935
615.181	0.0215915
624.823	0.0226544
634.466	0.0249892
644.108	0.0266173
653.75	0.0280099
663.393	0.0303254
673.035	0.0346829
682.677	0.0423849
692.319	0.0616602
701.962	0.116711
711.604	0.159431
721.246	0.121631
730.889	0.0791477
740.531	0.0666101
750.173	0.0729226
759.816	0.0863796
769.458	0.0617262
779.101	0.0364543
788.743	0.0273862
798.385	0.0233926
808.028	0.0224276
817.67	0.0218129
827.312	0.0221731
836.955	0.0222138
846.597	0.0236829
856.239	0.0263874
865.881	0.0304578
875.524	0.0349286
885.166	0.038721
894.808	0.042503
904.451	0.0479073
914.093	0.0553547
923.736	0.0663654
933.378	0.0801828
943.02	0.102796
952.663	0.162701
962.305	0.167704
971.947	0.161613
981.59	0.21128
991.232	0.26538
1000.87	0.325011
1010.52	0.391282
1020.16	0.458674
1029.8	0.512669
1039.44	0.522006
1049.09	0.504411
1058.73	0.474994
1068.37	0.430025
1078.01	0.386809
1087.65	0.357316
1097.3	0.305635
1106.94	0.241221
1116.58	0.191619
1126.22	0.156246
1135.87	0.128902
1145.51	0.10635
1155.15	0.0890883
1164.79	0.0782294
1174.44	0.0706228
1184.08	0.0600266
1193.72	0.0464685
1203.36	0.0339636
1213.01	0.0245616
1222.65	0.0180698
1232.29	0.0140769
1241.93	0.0111595
1251.58	0.00890491
1261.22	0.00713308
1270.86	0.00601711
1280.5	0.00561436
1290.14	0.00530113
1299.79	0.00388775
1309.43	0.00343895
1319.07	0.00299413
1328.71	0.00245405
1338.36	0.00219872
1348	0.00217384
1357.64	0.00214798
1367.28	0.00231293
1376.92	0.00242412
1386.57	0.00271254
1396.21	0.00288379
1405.85	0.00362065
1415.49	0.009709
1425.14	0.00990184
1434.78	0.00652866
1444.42	0.00648551
1454.06	0.00601056
1463.71	0.00702987
1473.35	0.015196
1482.99	0.0828203
1492.63	0.0286769
1502.28	0.0069481
1511.92	0.00358346
1521.56	0.00237387
1531.2	0.00213575
1540.85	0.00195044
1550.49	0.00166556
1560.13	0.00147127
1569.77	0.00165608
1579.41	0.00174738
1589.06	0.00210507
1598.7	0.00245755
1608.34	0.00265011
1617.98	0.00298949
1627.63	0.00299131
1637.27	0.00336676
1646.91	0.00313551
1656.55	0.00285982
1666.19	0.00235634
1675.84	0.00178108
1685.48	0.00128787
1695.12	0.000916601
1704.77	0.00107997
1714.41	0.000679615
1724.05	0.00131539
1733.69	0.000630727
1743.33	-0.000423301
1752.98	0.000182353
1762.62	0.00153375
1772.26	0.00166249
1781.9	0.0018519
1791.55	0.00181106
1801.19	0.00149303
1810.83	0.00135103
1820.47	0.00131548
1830.12	0.00105267
1839.76	0.000227603
1849.4	0.000355008
1859.04	-0.000321332
1868.68	-5.97848e-06
1878.33	-0.00103679
1887.97	-0.000801456
1897.61	-0.000921182
1907.25	-0.000902248
1916.9	-0.000562172
1926.54	-0.000359272
1936.18	0.000124175
1945.82	0.000195958
1955.46	-0.000366469
1965.11	0.000666177
1974.75	0.000152056
1984.39	0.000653667
1994.04	-0.000524975
2003.68	-0.00288008
2013.32	-0.00153717
2022.96	-0.00240874
2032.6	-0.00157273
2042.25	-0.00134077
2051.89	-0.000772518
2061.53	-0.00317926
2071.17	-0.00331953
2080.82	-0.00251292
2090.46	-0.00376619
2100.1	-0.00257406
2109.74	-0.00309206
2119.39	-0.0031814
2129.03	-0.00413754
2138.67	-0.00414831
2148.31	-0.0044678
2157.95	-0.00183921
2167.6	-0.000665521
2177.24	-0.00118571
2186.88	-0.00183444
2196.52	-0.000965099
2206.17	-0.00103038
2215.81	-0.00085634
2225.45	-0.000386602
2235.09	-8.23326e-05
2244.74	-0.000504523
2254.38	-4.64173e-05
2264.02	-0.000906055
2273.66	0.00019612
2283.3	0.000156721
2292.95	-0.000449397
2302.59	-0.000202041
2312.23	-0.000988479
2321.87	-0.00023993
2331.52	-0.00220707
2341.16	-0.00196844
2350.8	-0.00199603
2360.44	-0.00254939
2370.09	-0.00222335
2379.73	-0.00150019
2389.37	-0.00118221
2399.01	-0.000962839
2408.66	-0.00115538
2418.3	-0.000593323
2427.94	-0.000905031
2437.58	-0.000682772
2447.22	0.000210947
2456.87	-0.000141404
2466.51	-0.000588769
2476.15	-0.00025136
2485.79	-0.000345275
2495.44	-1.5648e-05
2505.08	6.06144e-05
2514.72	0.000295742
2524.36	-0.000507502
2534.01	-0.000462976
2543.65	-0.000402843
2553.29	-0.000146099
2562.93	2.74835e-05
2572.57	-5.0826e-05
2582.22	9.21077e-05
2591.86	0.000608122
2601.5	0.000283216
2611.14	0.000610477
2620.79	0.000422831
2630.43	0.000513585
2640.07	0.000771315
2649.71	0.000410766
2659.36	0.000219173
2669	-9.72301e-05
2678.64	-0.000517855
2688.28	-0.000391025
2697.93	-0.000641953
2707.57	-5.17819e-05
2717.21	-0.00023348
2726.85	-5.29848e-05
2736.49	6.07445e-05
2746.14	0.000106969
2755.78	0.000885635
2765.42	0.00055765
2775.06	0.00017281
2784.71	0.000308751
2794.35	0.000132548
2803.99	2.84494e-05
2813.63	-1.82806e-05
2823.28	0.000311795
2832.92	0.000295842
2842.56	-0.00107758
2852.2	-0.00520583
2861.84	-0.00199465
2871.49	-0.000710591
2881.13	-0.000787784
2890.77	-0.000695665
2900.41	-0.00155556
2910.06	-0.00316655
2919.7	-0.00676014
2929.34	-0.00544062
2938.98	-0.00300548
2948.62	-0.000869191
2958.27	-0.000870261
2967.91	-0.00134998
2977.55	-0.000873347
2987.2	0.00100413
2996.84	0.00097154
3006.48	0.00148987
3016.12	0.00203615
3025.76	0.00242078
3035.41	0.00365338
3045.05	0.00310668
3054.69	0.00281123
3064.33	0.00328804
3073.98	0.00302719
3083.62	0.00302229
3093.26	0.00335684
3102.9	0.00368141
3112.55	0.00411219
3122.19	0.00379705
3131.83	0.00418192
3141.47	0.00443783
3151.11	0.00476883
3160.76	0.00464571
3170.4	0.00422578
3180.04	0.00514125
3189.68	0.00483637
3199.33	0.00573362
3208.97	0.00466168
3218.61	0.00541715
3228.25	0.00588483
3237.9	0.00542898
3247.54	0.00515244
3257.18	0.00564958
3266.82	0.0059818
3276.47	0.00568497
3286.11	0.00557727
3295.75	0.00566544
3305.39	0.00638928
3315.03	0.00627795
3324.68	0.00589864
3334.32	0.00640346
3343.96	0.00663121
3353.6	0.00703793
3363.25	0.00620025
3372.89	0.0062727
3382.53	0.00683076
3392.17	0.00646908
3401.82	0.00624683
3411.46	0.00677294
3421.1	0.00715288
3430.74	0.00677014
3440.39	0.0063707
3450.03	0.00574219
3459.67	0.00634096
3469.31	0.00584206
3478.95	0.00529095
3488.6	0.00479338
3498.24	0.00530429
3507.88	0.00436203
3517.52	0.00514366
3527.17	0.00534567
3536.81	0.00506705
3546.45	0.00444346
3556.09	0.00495468
3565.74	0.00411917
3575.38	0.00353231
3585.02	0.00380322
3594.66	0.00345963
3604.3	0.00370776
3613.95	0.00294927
3623.59	0.00359113
3633.23	0.00220995
3642.87	0.00192508
3652.52	0.000912284
3662.16	0.000468737
3671.8	0.00187061
3681.44	0.000681579
3691.09	2.16493e-05
3700.73	0.000335595
3710.37	-0.00100258
3720.01	-0.00105206
3729.66	-0.00014665
3739.3	-0.0008836
3748.94	-0.00061059
3758.58	-0.000110832
3768.22	-0.00129416
3777.87	-0.000298872
3787.51	-0.00114149
3797.15	-9.33844e-05
3806.79	-0.000839742
3816.44	-0.00135087
3826.08	-0.000701898
3835.72	-0.00059221
3845.36	-0.00136252
3855.01	-0.00129987
3864.65	-0.00165154
3874.29	-0.00194909
3883.93	-0.00167976
3893.57	-0.00192723
3903.22	-0.00110166
3912.86	-0.00105112
3922.5	-0.00150392
3932.14	-0.000922071
3941.79	-0.00102895
3951.43	-0.000903789
3961.07	-0.00112705
3970.71	7.33801e-05
3980.36	-0.000194963
3990	-0.000847792
3999.64	-0.0016754
