Measurement: Infrared, Infrared Data Processed
Mineral: Tschermigite
Rruff sample: R050276
Ideal chemistry: N^3-^H_4_Al(S^6+^O_4_)_2_12H_2_O
Locality: near Wamsutter, Wyoming, USA
Source: Marcus Origlieri
Description: Colorless fibrous columnar aggregate
x	intensity
399.193	0.0554574
408.835	0.0674282
418.477	0.0719396
428.12	0.0787456
437.762	0.0854802
447.404	0.0964301
457.047	0.102978
466.689	0.1117
476.331	0.114673
485.974	0.121914
495.616	0.130672
505.258	0.143078
514.901	0.157313
524.543	0.169091
534.185	0.177182
543.828	0.187015
553.47	0.211777
563.112	0.252325
572.755	0.286808
582.397	0.299173
592.039	0.288259
601.682	0.260658
611.324	0.25104
620.966	0.202302
630.609	0.20165
640.251	0.206797
649.893	0.211064
659.536	0.217089
669.178	0.224584
678.82	0.229303
688.463	0.228631
698.105	0.221211
707.747	0.205244
717.39	0.18829
727.032	0.168625
736.674	0.149273
746.317	0.131314
755.959	0.116748
765.601	0.104027
775.244	0.0948694
784.886	0.0893324
794.528	0.0866593
804.171	0.087229
813.813	0.0898087
823.455	0.0926051
833.098	0.0963858
842.74	0.102927
852.382	0.112928
862.025	0.124889
871.667	0.138274
881.309	0.151457
890.952	0.166011
900.594	0.181997
910.236	0.192833
919.879	0.192746
929.521	0.183707
939.163	0.169866
948.806	0.158192
958.448	0.149899
968.09	0.147129
977.733	0.14703
987.375	0.145432
997.017	0.151728
1006.66	0.165052
1016.3	0.194491
1025.94	0.249476
1035.59	0.343879
1045.23	0.485231
1054.87	0.64723
1064.51	0.769558
1074.16	0.808718
1083.8	0.701403
1093.44	0.509802
1103.08	0.337869
1112.72	0.215893
1122.37	0.141601
1132.01	0.0933945
1141.65	0.0657823
1151.3	0.0530216
1160.94	0.0457327
1170.58	0.0412396
1180.22	0.0385876
1189.86	0.0357075
1199.51	0.0312115
1209.15	0.0274201
1218.79	0.0253701
1228.43	0.0243561
1238.08	0.0244921
1247.72	0.0240744
1257.36	0.0244108
1267	0.0251371
1276.64	0.0257046
1286.29	0.0269946
1295.93	0.0283053
1305.57	0.0298127
1315.21	0.0311163
1324.86	0.0335642
1334.5	0.0358007
1344.14	0.0385585
1353.78	0.0417787
1363.43	0.045484
1373.07	0.0500298
1382.71	0.0554889
1392.35	0.0632222
1401.99	0.0744656
1411.64	0.0935127
1421.28	0.127644
1430.92	0.185125
1440.57	0.198328
1450.21	0.148268
1459.85	0.104206
1469.49	0.07356
1479.13	0.0656884
1488.78	0.0640631
1498.42	0.0642671
1508.06	0.0656809
1517.7	0.0669477
1527.35	0.0695067
1536.99	0.0728636
1546.63	0.0768137
1556.27	0.0830072
1565.91	0.0894808
1575.56	0.0987995
1585.2	0.108685
1594.84	0.118009
1604.48	0.126371
1614.13	0.130135
1623.77	0.129475
1633.41	0.126355
1643.05	0.122887
1652.7	0.11948
1662.34	0.115357
1671.98	0.110853
1681.62	0.10438
1691.27	0.0967418
1700.91	0.0886815
1710.55	0.0809465
1720.19	0.0753577
1729.84	0.0703715
1739.48	0.0649181
1749.12	0.0618948
1758.76	0.061211
1768.4	0.0585624
1778.05	0.0559627
1787.69	0.0534021
1797.33	0.0515109
1806.97	0.0491767
1816.62	0.0471412
1826.26	0.0451653
1835.9	0.0434698
1845.54	0.0411356
1855.18	0.0413688
1864.83	0.0403726
1874.47	0.0388278
1884.11	0.0386763
1893.75	0.0397589
1903.4	0.0381024
1913.04	0.0378052
1922.68	0.0380592
1932.32	0.0386359
1941.97	0.0374956
1951.61	0.0370895
1961.25	0.0380095
1970.89	0.0364555
1980.54	0.0394097
1990.18	0.0399919
1999.82	0.0371299
2009.46	0.0368121
2019.11	0.037685
2028.75	0.037243
2038.39	0.0373218
2048.03	0.0402125
2057.67	0.0406029
2067.32	0.0430873
2076.96	0.0439661
2086.6	0.0459445
2096.24	0.0430277
2105.89	0.0463607
2115.53	0.0442004
2125.17	0.0430983
2134.81	0.0390681
2144.45	0.0349264
2154.1	0.0338761
2163.74	0.0341454
2173.38	0.0367005
2183.02	0.0444851
2192.67	0.0424826
2202.31	0.0460711
2211.95	0.0499516
2221.59	0.0543781
2231.24	0.0548645
2240.88	0.0588351
2250.52	0.0588556
2260.16	0.0624271
2269.8	0.0652362
2279.45	0.0698995
2289.09	0.0738585
2298.73	0.0774769
2308.38	0.0803229
2318.02	0.0847387
2327.66	0.089764
2337.3	0.0939165
2346.94	0.0983598
2356.59	0.105058
2366.23	0.111351
2375.87	0.116316
2385.51	0.123748
2395.16	0.132218
2404.8	0.139369
2414.44	0.148959
2424.08	0.156731
2433.72	0.16478
2443.37	0.171044
2453.01	0.177428
2462.65	0.178666
2472.29	0.178523
2481.94	0.176887
2491.58	0.173104
2501.22	0.172041
2510.86	0.168752
2520.51	0.166316
2530.15	0.164876
2539.79	0.161107
2549.43	0.163748
2559.07	0.163053
2568.72	0.16574
2578.36	0.167102
2588	0.167354
2597.64	0.17004
2607.29	0.175066
2616.93	0.179716
2626.57	0.185746
2636.21	0.190152
2645.86	0.19557
2655.5	0.202749
2665.14	0.209083
2674.78	0.218022
2684.43	0.224985
2694.07	0.235596
2703.71	0.245111
2713.35	0.252694
2722.99	0.264463
2732.64	0.275058
2742.28	0.286636
2751.92	0.297604
2761.56	0.309656
2771.21	0.322241
2780.85	0.334024
2790.49	0.346084
2800.13	0.357341
2809.78	0.367849
2819.42	0.379416
2829.06	0.391523
2838.7	0.401993
2848.34	0.40858
2857.99	0.418246
2867.63	0.428719
2877.27	0.435726
2886.91	0.439403
2896.56	0.441129
2906.2	0.442523
2915.84	0.439402
2925.48	0.435012
2935.13	0.439861
2944.77	0.441491
2954.41	0.437711
2964.05	0.436204
2973.7	0.429617
2983.34	0.426586
2992.98	0.420595
3002.62	0.41454
3012.26	0.408432
3021.91	0.402217
3031.55	0.396683
3041.19	0.391159
3050.83	0.387167
3060.48	0.38443
3070.12	0.385704
3079.76	0.381484
3089.4	0.377131
3099.05	0.366667
3108.69	0.34886
3118.33	0.333914
3127.97	0.325169
3137.61	0.320705
3147.26	0.319108
3156.9	0.322384
3166.54	0.327572
3176.18	0.334726
3185.83	0.335333
3195.47	0.340628
3205.11	0.338039
3214.75	0.331398
3224.4	0.328798
3234.04	0.327766
3243.68	0.329516
3253.32	0.330113
3262.97	0.337998
3272.61	0.350563
3282.25	0.363414
3291.89	0.37698
3301.53	0.396058
3311.18	0.406919
3320.82	0.411882
3330.46	0.412214
3340.1	0.412236
3349.75	0.40161
3359.39	0.381438
3369.03	0.366692
3378.67	0.343438
3388.32	0.316189
3397.96	0.29683
3407.6	0.271511
3417.24	0.254072
3426.89	0.233099
3436.53	0.207634
3446.17	0.188443
3455.81	0.169816
3465.45	0.157883
3475.1	0.139462
3484.74	0.127757
3494.38	0.117274
3504.02	0.105565
3513.67	0.0992082
3523.31	0.0897427
3532.95	0.0834705
3542.59	0.0717998
3552.24	0.0644098
3561.88	0.0573427
3571.52	0.0475579
3581.16	0.0412686
3590.8	0.030832
3600.45	0.0280277
3610.09	0.0229335
3619.73	0.0186186
3629.37	0.0158164
3639.02	0.0150889
3648.66	0.010091
3658.3	0.00880963
3667.94	0.00932592
3677.59	0.00700778
3687.23	0.0101345
3696.87	0.008469
3706.51	0.00519779
3716.16	0.00738232
3725.8	0.00715991
3735.44	0.00713319
3745.08	0.0124841
3754.72	0.0071539
3764.37	0.0105985
3774.01	0.00580713
3783.65	0.0036608
3793.29	0.00439321
3802.94	0.00347539
3812.58	0.00824318
3822.22	0.00448538
3831.86	0.0100859
3841.51	0.00542094
3851.15	0.00602303
3860.79	0.00562245
3870.43	0.0114007
3880.07	0.0116177
3889.72	0.00832214
3899.36	0.00868364
3909	0.00733376
3918.64	0.00801559
3928.29	0.00660015
3937.93	0.0102985
3947.57	0.00767465
3957.21	0.00956676
3966.86	0.00823716
3976.5	0.00941558
3986.14	0.0129526
3995.78	0.00791281
