Measurement: Infrared, Infrared Data Processed
Mineral: Tunellite
Rruff sample: R050283
Ideal chemistry: SrB_6_O_9_(OH)_2_3H_2_O
Locality: Boron, Kern County, California, USA
Source: Marcus Origlieri
Description: Colorless flattened tabular crystals
Measured chemistry: (Sr_0.96_Ba_0.06_)_Σ=1_B_6_O_9_(OH)_2_·3H_2_O ; B not measured but estimated by stoichiometry
x	intensity
399.193	0.0853781
408.835	0.0955651
418.477	0.0999978
428.12	0.0971752
437.762	0.0892215
447.404	0.0849058
457.047	0.0854554
466.689	0.0883605
476.331	0.0911598
485.974	0.0972674
495.616	0.0997516
505.258	0.102125
514.901	0.103316
524.543	0.110286
534.185	0.112122
543.828	0.100277
553.47	0.0978098
563.112	0.101915
572.755	0.118798
582.397	0.121838
592.039	0.126993
601.682	0.114823
611.324	0.10562
620.966	0.101638
630.609	0.106103
640.251	0.113183
649.893	0.118136
659.536	0.125434
669.178	0.144374
678.82	0.182339
688.463	0.137636
698.105	0.125187
707.747	0.110487
717.39	0.0976553
727.032	0.118486
736.674	0.141403
746.317	0.0929204
755.959	0.0821963
765.601	0.0956731
775.244	0.120581
784.886	0.162119
794.528	0.203976
804.171	0.224113
813.813	0.240043
823.455	0.189569
833.098	0.162677
842.74	0.156635
852.382	0.172749
862.025	0.208735
871.667	0.239808
881.309	0.258898
890.952	0.233031
900.594	0.177116
910.236	0.137032
919.879	0.159947
929.521	0.207834
939.163	0.171226
948.806	0.243855
958.448	0.315856
968.09	0.276816
977.733	0.26892
987.375	0.293798
997.017	0.307781
1006.66	0.297064
1016.3	0.276818
1025.94	0.253757
1035.59	0.229013
1045.23	0.186383
1054.87	0.148036
1064.51	0.124912
1074.16	0.111813
1083.8	0.122182
1093.44	0.142265
1103.08	0.151952
1112.72	0.152946
1122.37	0.15249
1132.01	0.149106
1141.65	0.140204
1151.3	0.123136
1160.94	0.106541
1170.58	0.111301
1180.22	0.126432
1189.86	0.1181
1199.51	0.0976613
1209.15	0.0768109
1218.79	0.0582598
1228.43	0.0464831
1238.08	0.0411902
1247.72	0.0386859
1257.36	0.0396453
1267	0.0459999
1276.64	0.0609726
1286.29	0.0955081
1295.93	0.155957
1305.57	0.236222
1315.21	0.321436
1324.86	0.305005
1334.5	0.269272
1344.14	0.284973
1353.78	0.30733
1363.43	0.279729
1373.07	0.237737
1382.71	0.19536
1392.35	0.152181
1401.99	0.116018
1411.64	0.0961657
1421.28	0.0814186
1430.92	0.0787174
1440.57	0.0869892
1450.21	0.0852775
1459.85	0.0744878
1469.49	0.0658998
1479.13	0.0560549
1488.78	0.0365112
1498.42	0.0239911
1508.06	0.0179352
1517.7	0.0153838
1527.35	0.0142515
1536.99	0.0130886
1546.63	0.0131397
1556.27	0.012655
1565.91	0.0127344
1575.56	0.0122361
1585.2	0.0131319
1594.84	0.0131763
1604.48	0.0142569
1614.13	0.0156165
1623.77	0.0179692
1633.41	0.0191308
1643.05	0.0206236
1652.7	0.02223
1662.34	0.0292904
1671.98	0.0379875
1681.62	0.0248552
1691.27	0.0141373
1700.91	0.0103168
1710.55	0.00809939
1720.19	0.00728098
1729.84	0.00561738
1739.48	0.00231359
1749.12	0.00271612
1758.76	0.00464579
1768.4	0.00483664
1778.05	0.00434407
1787.69	0.00442833
1797.33	0.00481915
1806.97	0.00457613
1816.62	0.00450683
1826.26	0.00396729
1835.9	0.00511282
1845.54	0.00381641
1855.18	0.00423482
1864.83	0.00320454
1874.47	0.0037933
1884.11	0.00373579
1893.75	0.00351018
1903.4	0.00223687
1913.04	0.00153366
1922.68	0.00147349
1932.32	-6.37031e-05
1941.97	0.00107473
1951.61	-0.00104711
1961.25	-0.00152051
1970.89	-0.000784786
1980.54	0.000317018
1990.18	0.000626814
1999.82	-0.00132661
2009.46	-0.00197444
2019.11	-0.00198839
2028.75	-0.00179068
2038.39	-0.00350103
2048.03	0.00148846
2057.67	0.00243745
2067.32	0.00452812
2076.96	0.00346834
2086.6	0.00352415
2096.24	0.00210016
2105.89	0.00477785
2115.53	0.00327243
2125.17	0.00317337
2134.81	0.00160176
2144.45	0.00215487
2154.1	-0.00236975
2163.74	0.00409443
2173.38	0.00128465
2183.02	4.47025e-05
2192.67	0.00116532
2202.31	0.00203178
2211.95	-0.000144299
2221.59	0.00481914
2231.24	0.00360746
2240.88	0.00239615
2250.52	0.00252779
2260.16	0.00379044
2269.8	0.00329524
2279.45	0.00506587
2289.09	0.00728349
2298.73	0.00651653
2308.38	0.00705449
2318.02	0.0068354
2327.66	0.00655483
2337.3	0.00707848
2346.94	0.00496164
2356.59	0.00533376
2366.23	0.00466778
2375.87	0.00352885
2385.51	0.00411961
2395.16	0.00334624
2404.8	0.00512935
2414.44	0.00457325
2424.08	0.00633552
2433.72	0.00419939
2443.37	0.00649092
2453.01	0.00556744
2462.65	0.00574051
2472.29	0.00659636
2481.94	0.00580018
2491.58	0.0054574
2501.22	0.00615575
2510.86	0.00498419
2520.51	0.00404422
2530.15	0.00526985
2539.79	0.00511618
2549.43	0.00544829
2559.07	0.00640098
2568.72	0.00596756
2578.36	0.00512865
2588	0.00416483
2597.64	0.00385211
2607.29	0.00357761
2616.93	0.00385191
2626.57	0.00260488
2636.21	0.00358944
2645.86	0.00319986
2655.5	0.00397331
2665.14	0.00397905
2674.78	0.00461952
2684.43	0.00395474
2694.07	0.00366436
2703.71	0.00450725
2713.35	0.00557408
2722.99	0.00497906
2732.64	0.0061003
2742.28	0.0040946
2751.92	0.00693752
2761.56	0.00635201
2771.21	0.00728425
2780.85	0.00833346
2790.49	0.00851758
2800.13	0.00903399
2809.78	0.0105229
2819.42	0.0090078
2829.06	0.0100021
2838.7	0.0106811
2848.34	0.0110606
2857.99	0.0122693
2867.63	0.00987595
2877.27	0.0115285
2886.91	0.0120874
2896.56	0.0127092
2906.2	0.0112837
2915.84	0.0154862
2925.48	0.0156851
2935.13	0.0160974
2944.77	0.0182234
2954.41	0.0151957
2964.05	0.0210151
2973.7	0.019394
2983.34	0.0223644
2992.98	0.0243909
3002.62	0.0259497
3012.26	0.0260714
3021.91	0.0267979
3031.55	0.0276274
3041.19	0.0296407
3050.83	0.0300849
3060.48	0.0346404
3070.12	0.0346802
3079.76	0.0375577
3089.4	0.0413467
3099.05	0.0436787
3108.69	0.0454344
3118.33	0.0494509
3127.97	0.0548879
3137.61	0.0581856
3147.26	0.0637588
3156.9	0.0686733
3166.54	0.0754489
3176.18	0.0806054
3185.83	0.0900304
3195.47	0.0959917
3205.11	0.099941
3214.75	0.106669
3224.4	0.104596
3234.04	0.105612
3243.68	0.105197
3253.32	0.106187
3262.97	0.106894
3272.61	0.111485
3282.25	0.112105
3291.89	0.105469
3301.53	0.103408
3311.18	0.0977385
3320.82	0.0954438
3330.46	0.0951442
3340.1	0.0996013
3349.75	0.104049
3359.39	0.104961
3369.03	0.103756
3378.67	0.101346
3388.32	0.089175
3397.96	0.0837603
3407.6	0.0764033
3417.24	0.074693
3426.89	0.0705587
3436.53	0.0670959
3446.17	0.0654669
3455.81	0.0631527
3465.45	0.0612532
3475.1	0.0584464
3484.74	0.0546597
3494.38	0.0525656
3504.02	0.0524587
3513.67	0.055471
3523.31	0.0553072
3532.95	0.0518553
3542.59	0.060684
3552.24	0.0660931
3561.88	0.0777819
3571.52	0.0809974
3581.16	0.074754
3590.8	0.0542269
3600.45	0.0421193
3610.09	0.0370027
3619.73	0.0406631
3629.37	0.0277884
3639.02	0.0169594
3648.66	0.0128315
3658.3	0.0146912
3667.94	0.00880706
3677.59	0.0101335
3687.23	0.00596617
3696.87	0.00875077
3706.51	0.00656932
3716.16	0.0055901
3725.8	0.00946047
3735.44	0.0113921
3745.08	0.0131533
3754.72	0.00970012
3764.37	0.00914958
3774.01	0.00710951
3783.65	0.0110039
3793.29	0.0101251
3802.94	0.00666583
3812.58	0.0065928
3822.22	0.00602685
3831.86	0.00867818
3841.51	0.00841753
3851.15	0.0111604
3860.79	0.00555622
3870.43	0.0122157
3880.07	0.0116631
3889.72	0.0136657
3899.36	0.010708
3909	0.0105874
3918.64	0.00765023
3928.29	0.0073183
3937.93	0.0101406
3947.57	0.00926555
3957.21	0.0121033
3966.86	0.00795364
3976.5	0.0114824
3986.14	0.0149612
3995.78	0.0107461
