Measurement: Infrared, Infrared Data Processed
Mineral: Turquoise
Rruff sample: R050225
Ideal chemistry: Cu^2+^Al_6_(P^5+^O_4_)_4_(OH)_8_4H_2_O
Locality: Badger Prospect, Lander County, Nevada, USA
Source: Marcus Origlieri
Description: Light blue massive
Measured chemistry: Cu_1.00_(Al_5.83_Fe^3+^_0.17_)_Σ=6_(P_1.00_O_4_)_4_(OH)_8_·4H_2_O
x	intensity
50.1401	-0.00116652
52.0686	0.00547511
53.9971	0.0074622
55.9255	0.00974954
57.854	0.0168399
59.7825	0.0198129
61.7109	0.0156237
63.6394	0.0145461
65.5679	0.0147975
67.4963	0.0131961
69.4248	0.0165635
71.3533	0.0181069
73.2817	0.0177344
75.2102	0.0177355
77.1387	0.0199961
79.0671	0.022846
80.9956	0.0223058
82.9241	0.0209187
84.8525	0.0225853
86.781	0.0231663
88.7095	0.0231979
90.6379	0.0238577
92.5664	0.0252883
94.4948	0.0266308
96.4233	0.0275727
98.3518	0.0279873
100.28	0.0280252
102.209	0.0290454
104.137	0.0295779
106.066	0.0284017
107.994	0.0279688
109.923	0.0282659
111.851	0.0286672
113.779	0.0282351
115.708	0.0286863
117.636	0.0297895
119.565	0.0310418
121.493	0.0321657
123.422	0.0328432
125.35	0.0332387
127.279	0.034525
129.207	0.0359605
131.136	0.0374582
133.064	0.0392605
134.993	0.0412032
136.921	0.0423618
138.85	0.0436637
140.778	0.0455992
142.707	0.0468633
144.635	0.0470345
146.563	0.0472257
148.492	0.0476475
150.42	0.0474254
152.349	0.0474201
154.277	0.0475692
156.206	0.0476179
158.134	0.0484013
160.063	0.0488979
161.991	0.0486102
163.92	0.0481169
165.848	0.0481274
167.777	0.0484083
169.705	0.0488851
171.633	0.0487093
173.562	0.0478021
175.49	0.0467877
177.419	0.0464331
179.347	0.0467146
181.276	0.0473052
183.204	0.0477483
185.133	0.0485642
187.061	0.0502576
188.99	0.0518998
190.918	0.0527361
192.847	0.0535836
194.775	0.0550895
196.704	0.0568455
198.632	0.0585232
200.56	0.0601479
202.489	0.0615832
204.417	0.0623215
206.346	0.0622631
208.274	0.0613818
210.203	0.0597429
212.131	0.058692
214.06	0.05872
215.988	0.0589388
217.917	0.0588425
219.845	0.0591081
221.774	0.0598777
223.702	0.0610657
225.631	0.0620802
227.559	0.0633506
229.488	0.0644499
231.416	0.0652358
233.344	0.0656051
235.273	0.0663102
237.201	0.0673365
239.13	0.0684767
241.058	0.0699501
242.987	0.0707456
244.915	0.0709783
246.844	0.071694
248.772	0.0724852
250.701	0.0730957
252.629	0.07379
254.558	0.0752085
256.486	0.0768788
258.414	0.0786982
260.343	0.0805975
262.271	0.0819415
264.2	0.0823923
266.128	0.0822753
268.057	0.0818082
269.985	0.0817137
271.914	0.0824503
273.842	0.0836814
275.771	0.0851003
277.699	0.0863267
279.628	0.0870467
281.556	0.0874355
283.485	0.0880593
285.413	0.0890827
287.341	0.0896581
289.27	0.0898811
291.198	0.0899391
293.127	0.0903518
295.055	0.090982
296.984	0.0915943
298.912	0.092452
300.841	0.09394
302.769	0.0963559
304.698	0.0980335
306.626	0.0987335
308.555	0.0995726
310.483	0.100326
312.411	0.0999218
314.34	0.0985678
316.269	0.0969104
318.197	0.0952991
320.125	0.09427
322.054	0.0936251
323.982	0.092977
325.911	0.0924043
327.839	0.0916188
329.768	0.091007
331.696	0.0911377
333.625	0.0917646
335.553	0.0929992
337.482	0.094734
339.41	0.0961522
341.339	0.0977974
343.267	0.0993142
345.195	0.100623
347.124	0.102179
349.052	0.103625
350.981	0.105026
352.909	0.106485
354.838	0.107403
356.766	0.107705
358.695	0.10781
360.623	0.107269
362.552	0.106117
364.48	0.104521
366.409	0.103164
368.337	0.101689
370.265	0.100347
372.194	0.099781
374.122	0.100308
376.051	0.101001
377.979	0.101496
379.908	0.101923
381.836	0.102058
383.765	0.101792
385.693	0.101425
387.622	0.10137
389.55	0.102011
391.479	0.103186
393.407	0.104409
395.336	0.105689
397.264	0.107057
399.192	0.108272
401.121	0.109144
403.049	0.109928
404.978	0.110171
406.906	0.110124
408.835	0.110345
410.763	0.110681
412.692	0.110877
414.62	0.111142
416.549	0.111206
418.477	0.111068
420.406	0.111389
422.334	0.111514
424.262	0.111661
426.191	0.111881
428.12	0.111871
430.048	0.111603
431.976	0.111202
433.905	0.110808
435.833	0.110989
437.762	0.111223
439.69	0.111585
441.619	0.112605
443.547	0.113867
445.476	0.115244
447.404	0.116722
449.333	0.117958
451.261	0.118298
453.19	0.117685
455.118	0.117093
457.046	0.11638
458.975	0.116231
460.903	0.116922
462.832	0.118112
464.76	0.119187
466.689	0.120116
468.617	0.120988
470.546	0.121871
472.474	0.122804
474.403	0.123416
476.331	0.124021
478.26	0.12465
480.188	0.12453
482.116	0.123977
484.045	0.123131
485.974	0.121808
487.902	0.119856
489.83	0.117734
491.759	0.11587
493.687	0.114481
495.616	0.113072
497.544	0.11187
499.473	0.111493
501.401	0.11206
503.33	0.112951
505.258	0.113824
507.187	0.115521
509.115	0.117519
511.043	0.119478
512.972	0.121833
514.9	0.123898
516.829	0.125682
518.757	0.127128
520.686	0.128112
522.614	0.129363
524.543	0.131079
526.471	0.133242
528.4	0.134843
530.328	0.135344
532.257	0.135176
534.185	0.135575
536.114	0.135899
538.042	0.135418
539.971	0.13447
541.899	0.134081
543.827	0.133719
545.756	0.133073
547.684	0.132943
549.613	0.132585
551.541	0.132243
553.47	0.132023
555.398	0.131671
557.327	0.130842
559.255	0.130263
561.184	0.130722
563.112	0.131377
565.041	0.131096
566.969	0.130684
568.898	0.129981
570.826	0.129268
572.755	0.128689
574.683	0.128013
576.611	0.127317
578.54	0.12676
580.468	0.126244
582.397	0.12577
584.325	0.124908
586.254	0.123829
588.182	0.122783
590.111	0.121731
592.039	0.120761
593.968	0.120195
595.896	0.119836
597.824	0.119072
599.753	0.11868
601.682	0.118453
603.61	0.118017
605.538	0.117473
607.467	0.117631
609.395	0.117528
611.324	0.116411
613.252	0.1155
615.181	0.115437
617.109	0.115469
619.038	0.114942
620.966	0.114808
622.894	0.114942
624.823	0.115466
626.751	0.115883
628.68	0.116177
630.608	0.116289
632.537	0.116239
634.465	0.116104
636.394	0.115949
638.322	0.116344
640.251	0.116828
642.179	0.117229
644.108	0.11726
646.036	0.116832
647.965	0.115848
649.893	0.114504
651.822	0.112641
653.75	0.11082
655.678	0.109211
657.607	0.107163
659.535	0.105002
661.464	0.103642
663.392	0.102516
665.321	0.100956
667.249	0.0992542
669.178	0.0978417
671.106	0.0961669
673.035	0.095205
674.963	0.0947864
676.892	0.0937161
678.82	0.0932049
680.749	0.0933926
682.677	0.0936033
684.606	0.0930555
686.534	0.0922758
688.462	0.0923676
690.391	0.0929907
692.319	0.093437
694.248	0.093915
696.176	0.0924827
698.105	0.0898729
700.033	0.0895995
