Measurement: Infrared, Infrared Data Processed
Mineral: Turquoise
Rruff sample: R050225
Ideal chemistry: Cu^2+^Al_6_(P^5+^O_4_)_4_(OH)_8_4H_2_O
Locality: Badger Prospect, Lander County, Nevada, USA
Source: Marcus Origlieri
Description: Light blue massive
Measured chemistry: Cu_1.00_(Al_5.83_Fe^3+^_0.17_)_Σ=6_(P_1.00_O_4_)_4_(OH)_8_·4H_2_O
x	intensity
374.123	0.215011
383.765	0.215895
393.407	0.246373
403.05	0.250204
412.692	0.242595
422.334	0.230092
431.976	0.219967
441.619	0.224824
451.261	0.240186
460.904	0.234111
470.546	0.243542
480.188	0.243194
489.83	0.212533
499.473	0.191606
509.115	0.20976
518.758	0.240995
528.4	0.26042
538.042	0.256437
547.684	0.24416
557.327	0.234599
566.969	0.2286
576.611	0.211172
586.254	0.197609
595.896	0.182665
605.538	0.180145
615.181	0.172812
624.823	0.166789
634.466	0.15858
644.108	0.157543
653.75	0.139719
663.393	0.118674
673.035	0.102206
682.677	0.0962176
692.319	0.0936612
701.962	0.0889058
711.604	0.0884517
721.246	0.0880265
730.889	0.0858115
740.531	0.0820775
750.173	0.0788127
759.816	0.0789117
769.458	0.0818714
779.101	0.0846735
788.743	0.0836868
798.385	0.0800649
808.028	0.0772058
817.67	0.0780547
827.312	0.0893025
836.955	0.104119
846.597	0.082888
856.239	0.0670839
865.881	0.0647148
875.524	0.0677188
885.166	0.0729209
894.808	0.0788761
904.451	0.080747
914.093	0.0785196
923.736	0.0795924
933.378	0.0872523
943.02	0.0994605
952.663	0.114317
962.305	0.133609
971.947	0.157244
981.59	0.194757
991.232	0.233684
1000.87	0.258173
1010.52	0.263865
1020.16	0.260398
1029.8	0.290112
1039.44	0.31982
1049.09	0.321089
1058.73	0.315058
1068.37	0.295224
1078.01	0.288629
1087.65	0.292498
1097.3	0.288125
1106.94	0.277135
1116.58	0.237613
1126.22	0.191199
1135.87	0.157978
1145.51	0.141944
1155.15	0.135662
1164.79	0.123787
1174.44	0.111741
1184.08	0.100879
1193.72	0.0887485
1203.36	0.0615633
1213.01	0.0367008
1222.65	0.0237055
1232.29	0.0178569
1241.93	0.0144159
1251.58	0.0125505
1261.22	0.0113032
1270.86	0.0107994
1280.5	0.0104604
1290.14	0.0099031
1299.79	0.00941741
1309.43	0.00954848
1319.07	0.00918062
1328.71	0.00922001
1338.36	0.00947754
1348	0.00943184
1357.64	0.00965278
1367.28	0.0096202
1376.92	0.0100708
1386.57	0.0101831
1396.21	0.0109001
1405.85	0.0110405
1415.49	0.0117475
1425.14	0.0124213
1434.78	0.013036
1444.42	0.0133961
1454.06	0.013824
1463.71	0.0145636
1473.35	0.0143866
1482.99	0.014255
1492.63	0.0144767
1502.28	0.014866
1511.92	0.0154264
1521.56	0.0162616
1531.2	0.0174512
1540.85	0.0186832
1550.49	0.0201203
1560.13	0.0219737
1569.77	0.023435
1579.41	0.0248997
1589.06	0.0261435
1598.7	0.0273369
1608.34	0.0278674
1617.98	0.0280245
1627.63	0.0278855
1637.27	0.0276508
1646.91	0.0268112
1656.55	0.024658
1666.19	0.0220345
1675.84	0.0191369
1685.48	0.0162907
1695.12	0.0144066
1704.77	0.0127206
1714.41	0.0113789
1724.05	0.0106254
1733.69	0.00963665
1743.33	0.00811835
1752.98	0.0080039
1762.62	0.00822391
1772.26	0.00817108
1781.9	0.00782388
1791.55	0.00769426
1801.19	0.00722298
1810.83	0.00691567
1820.47	0.00727296
1830.12	0.0070419
1839.76	0.00679582
1849.4	0.00655484
1859.04	0.00665048
1868.68	0.00637787
1878.33	0.00651777
1887.97	0.00667124
1897.61	0.00651597
1907.25	0.00725118
1916.9	0.00695512
1926.54	0.00629703
1936.18	0.00677296
1945.82	0.00751017
1955.46	0.00559368
1965.11	0.00634132
1974.75	0.007112
1984.39	0.0083072
1994.04	0.00708014
2003.68	0.00545133
2013.32	0.00630287
2022.96	0.00505147
2032.6	0.00699196
2042.25	0.0087938
2051.89	0.00751145
2061.53	0.00661309
2071.17	0.00693009
2080.82	0.00697608
2090.46	0.00648275
2100.1	0.00746588
2109.74	0.0077742
2119.39	0.00643686
2129.03	0.00521049
2138.67	0.00584436
2148.31	0.00582041
2157.95	0.00656377
2167.6	0.00879665
2177.24	0.00677299
2186.88	0.00817133
2196.52	0.00760868
2206.17	0.00678673
2215.81	0.00718433
2225.45	0.00773615
2235.09	0.00775208
2244.74	0.00849587
2254.38	0.00845284
2264.02	0.00874844
2273.66	0.00982118
2283.3	0.0109252
2292.95	0.0097562
2302.59	0.0101397
2312.23	0.0100152
2321.87	0.0110864
2331.52	0.00886569
2341.16	0.00904059
2350.8	0.00873281
2360.44	0.00928862
2370.09	0.00894107
2379.73	0.00979503
2389.37	0.00973611
2399.01	0.00954144
2408.66	0.0107736
2418.3	0.010546
2427.94	0.0108885
2437.58	0.0118804
2447.22	0.0118546
2456.87	0.0116074
2466.51	0.0121837
2476.15	0.011827
2485.79	0.0124541
2495.44	0.0121658
2505.08	0.0128904
2514.72	0.0126219
2524.36	0.0132374
2534.01	0.0130926
2543.65	0.0127016
2553.29	0.0137388
2562.93	0.0137719
2572.57	0.0140828
2582.22	0.0141444
2591.86	0.0145202
2601.5	0.0150488
2611.14	0.0155191
2620.79	0.01588
2630.43	0.0161247
2640.07	0.0167979
2649.71	0.0173292
2659.36	0.0167789
2669	0.017027
2678.64	0.0173719
2688.28	0.0180712
2697.93	0.0188317
2707.57	0.0191964
2717.21	0.0199624
2726.85	0.0209013
2736.49	0.0216107
2746.14	0.0220932
2755.78	0.0225294
2765.42	0.0242347
2775.06	0.0250015
2784.71	0.0260492
2794.35	0.0268837
2803.99	0.0275792
2813.63	0.0291312
2823.28	0.0301499
2832.92	0.0315595
2842.56	0.0335586
2852.2	0.0360048
2861.84	0.0367608
2871.49	0.038057
2881.13	0.0393166
2890.77	0.041269
2900.41	0.0431322
2910.06	0.0458104
2919.7	0.0493163
2929.34	0.050774
2938.98	0.0503979
2948.62	0.0520481
2958.27	0.0554454
2967.91	0.0560148
2977.55	0.0576619
2987.2	0.0600601
2996.84	0.062809
3006.48	0.0658853
3016.12	0.0690474
3025.76	0.0732974
3035.41	0.0767517
3045.05	0.0804929
3054.69	0.0840921
3064.33	0.0867728
3073.98	0.0889208
3083.62	0.0896659
3093.26	0.0887213
3102.9	0.0889871
3112.55	0.0879993
3122.19	0.0884964
3131.83	0.0875407
3141.47	0.0877091
3151.11	0.0872312
3160.76	0.0881745
3170.4	0.0901552
3180.04	0.090909
3189.68	0.0913837
3199.33	0.0933012
3208.97	0.0961277
3218.61	0.097291
3228.25	0.0992537
3237.9	0.1017
3247.54	0.103017
3257.18	0.104008
3266.82	0.105237
3276.47	0.105048
3286.11	0.104921
3295.75	0.104174
3305.39	0.103702
3315.03	0.102387
3324.68	0.100944
3334.32	0.0995938
3343.96	0.0978584
3353.6	0.0958965
3363.25	0.0958012
3372.89	0.0938856
3382.53	0.0935665
3392.17	0.0941996
3401.82	0.0957292
3411.46	0.0971507
3421.1	0.102012
3430.74	0.106899
3440.39	0.115193
3450.03	0.123452
3459.67	0.135724
3469.31	0.123177
3478.95	0.0970566
3488.6	0.0912132
3498.24	0.0935462
3507.88	0.0979241
3517.52	0.0918902
3527.17	0.0750267
3536.81	0.0608306
3546.45	0.0499181
3556.09	0.0396884
3565.74	0.034714
3575.38	0.0313954
3585.02	0.0251285
3594.66	0.0202759
3604.3	0.0166169
3613.95	0.0145589
3623.59	0.0107758
3633.23	0.00970493
3642.87	0.00760387
3652.52	0.00557045
3662.16	0.00431545
3671.8	0.00503238
3681.44	0.00324942
3691.09	0.00191387
3700.73	0.000187943
3710.37	0.000806948
3720.01	0.00140412
3729.66	0.00106404
3739.3	0.000945981
3748.94	0.000206645
3758.58	0.00126877
3768.22	0.00136495
3777.87	0.000968692
3787.51	0.000838177
3797.15	0.00132752
3806.79	0.000250313
3816.44	0.00179946
3826.08	0.00151384
3835.72	-0.000308631
3845.36	0.000597382
3855.01	0.000269982
3864.65	-0.000276539
3874.29	-0.000151207
3883.93	0.00104889
3893.57	0.00151877
3903.22	0.00128166
3912.86	0.00145054
3922.5	0.000697154
3932.14	0.00133994
3941.79	0.000874896
3951.43	3.74011e-05
3961.07	0.000623858
3970.71	0.00152016
3980.36	0.00091542
3990	0.000886179
3999.64	0.000449109
