Measurement: Infrared, Infrared Data Processed
Mineral: Ullmannite
Rruff sample: R050247
Ideal chemistry: NiSbS
Locality: Salchendorf, Siegerland, North Rhine-Westphalia, Germany
Source: Marcus Origlieri
Description: Steel gray massive
Measured chemistry: Ni_1.00_(Sb_0.78_As_0.22_)S_1.00_
x	intensity
399.193	0.380509
408.835	0.38275
418.477	0.394014
428.12	0.402242
437.762	0.40119
447.404	0.395002
457.047	0.388481
466.689	0.386924
476.331	0.387766
485.974	0.395695
495.616	0.398511
505.258	0.400195
514.901	0.401942
524.543	0.403049
534.185	0.405871
543.828	0.41869
553.47	0.42815
563.112	0.437365
572.755	0.447097
582.397	0.455533
592.039	0.461098
601.682	0.465655
611.324	0.469803
620.966	0.474966
630.609	0.480522
640.251	0.484796
649.893	0.488607
659.536	0.49425
669.178	0.501964
678.82	0.507371
688.463	0.514629
698.105	0.506854
707.747	0.513114
717.39	0.521898
727.032	0.529319
736.674	0.536276
746.317	0.541368
755.959	0.549974
765.601	0.559563
775.244	0.561898
784.886	0.550569
794.528	0.549082
804.171	0.519497
813.813	0.524216
823.455	0.53933
833.098	0.551073
842.74	0.562327
852.382	0.573074
862.025	0.582557
871.667	0.582643
881.309	0.591022
890.952	0.601705
900.594	0.60958
910.236	0.61789
919.879	0.625699
929.521	0.631848
939.163	0.637019
948.806	0.642833
958.448	0.648327
968.09	0.653989
977.733	0.657923
987.375	0.661749
997.017	0.665488
1006.66	0.669868
1016.3	0.672882
1025.94	0.675465
1035.59	0.677945
1045.23	0.677751
1054.87	0.672402
1064.51	0.653485
1074.16	0.640724
1083.8	0.628582
1093.44	0.614288
1103.08	0.601962
1112.72	0.592196
1122.37	0.58429
1132.01	0.57827
1141.65	0.573919
1151.3	0.567904
1160.94	0.573521
1170.58	0.561786
1180.22	0.552531
1189.86	0.546791
1199.51	0.543661
1209.15	0.54502
1218.79	0.550093
1228.43	0.558489
1238.08	0.566629
1247.72	0.573543
1257.36	0.579506
1267	0.585749
1276.64	0.59223
1286.29	0.59765
1295.93	0.60367
1305.57	0.608805
1315.21	0.613845
1324.86	0.619013
1334.5	0.624356
1344.14	0.628878
1353.78	0.633514
1363.43	0.638112
1373.07	0.642384
1382.71	0.646562
1392.35	0.651273
1401.99	0.655586
1411.64	0.657783
1421.28	0.658545
1430.92	0.657576
1440.57	0.656565
1450.21	0.656413
1459.85	0.655975
1469.49	0.655859
1479.13	0.657151
1488.78	0.658565
1498.42	0.660363
1508.06	0.662433
1517.7	0.665227
1527.35	0.667785
1536.99	0.669625
1546.63	0.672653
1556.27	0.674726
1565.91	0.677687
1575.56	0.680217
1585.2	0.682284
1594.84	0.684697
1604.48	0.686513
1614.13	0.687744
1623.77	0.68873
1633.41	0.689894
1643.05	0.69074
1652.7	0.691245
1662.34	0.693351
1671.98	0.694913
1681.62	0.696701
1691.27	0.698793
1700.91	0.700744
1710.55	0.702376
1720.19	0.704088
1729.84	0.705521
1739.48	0.706775
1749.12	0.709232
1758.76	0.712087
1768.4	0.714782
1778.05	0.717006
1787.69	0.718627
1797.33	0.721328
1806.97	0.722397
1816.62	0.722928
1826.26	0.724613
1835.9	0.726647
1845.54	0.728117
1855.18	0.729716
1864.83	0.731336
1874.47	0.731958
1884.11	0.73202
1893.75	0.735649
1903.4	0.736095
1913.04	0.737672
1922.68	0.74037
1932.32	0.741295
1941.97	0.742534
1951.61	0.742901
1961.25	0.748249
1970.89	0.748779
1980.54	0.752353
1990.18	0.752026
1999.82	0.755435
2009.46	0.759533
2019.11	0.75556
2028.75	0.760543
2038.39	0.757857
2048.03	0.760832
2057.67	0.765531
2067.32	0.764113
2076.96	0.767469
2086.6	0.768409
2096.24	0.772135
2105.89	0.773791
2115.53	0.774475
2125.17	0.777545
2134.81	0.780388
2144.45	0.781803
2154.1	0.789857
2163.74	0.785351
2173.38	0.785714
2183.02	0.788435
2192.67	0.784689
2202.31	0.791987
2211.95	0.791856
2221.59	0.794211
2231.24	0.794952
2240.88	0.79759
2250.52	0.79994
2260.16	0.797119
2269.8	0.798985
2279.45	0.800715
2289.09	0.799897
2298.73	0.800087
2308.38	0.800788
2318.02	0.802209
2327.66	0.80287
2337.3	0.80448
2346.94	0.807051
2356.59	0.805336
2366.23	0.80815
2375.87	0.810943
2385.51	0.81162
2395.16	0.814183
2404.8	0.812829
2414.44	0.816303
2424.08	0.816777
2433.72	0.817356
2443.37	0.818818
2453.01	0.820496
2462.65	0.821588
2472.29	0.82258
2481.94	0.82456
2491.58	0.825976
2501.22	0.82743
2510.86	0.828605
2520.51	0.830206
2530.15	0.830599
2539.79	0.832953
2549.43	0.834565
2559.07	0.835041
2568.72	0.835825
2578.36	0.838355
2588	0.839788
2597.64	0.841278
2607.29	0.843347
2616.93	0.845369
2626.57	0.846692
2636.21	0.848434
2645.86	0.85096
2655.5	0.852073
2665.14	0.853764
2674.78	0.854763
2684.43	0.856793
2694.07	0.857388
2703.71	0.858867
2713.35	0.860974
2722.99	0.86142
2732.64	0.862303
2742.28	0.86353
2751.92	0.864775
2761.56	0.866427
2771.21	0.867455
2780.85	0.869026
2790.49	0.869576
2800.13	0.87109
2809.78	0.872724
2819.42	0.874051
2829.06	0.875439
2838.7	0.876079
2848.34	0.876012
2857.99	0.875493
2867.63	0.87697
2877.27	0.878072
2886.91	0.879046
2896.56	0.880665
2906.2	0.881576
2915.84	0.881333
2925.48	0.879078
2935.13	0.878292
2944.77	0.880302
2954.41	0.881139
2964.05	0.880013
2973.7	0.881353
2983.34	0.8824
2992.98	0.884149
3002.62	0.885523
3012.26	0.886981
3021.91	0.887927
3031.55	0.889414
3041.19	0.888972
3050.83	0.890881
3060.48	0.891771
3070.12	0.892593
3079.76	0.893178
3089.4	0.894762
3099.05	0.89507
3108.69	0.894954
3118.33	0.895834
3127.97	0.896697
3137.61	0.897291
3147.26	0.896742
3156.9	0.897691
3166.54	0.898558
3176.18	0.898508
3185.83	0.898562
3195.47	0.898851
3205.11	0.898511
3214.75	0.898869
3224.4	0.899917
3234.04	0.899265
3243.68	0.900188
3253.32	0.900505
3262.97	0.900535
3272.61	0.901556
3282.25	0.900049
3291.89	0.900631
3301.53	0.901786
3311.18	0.901613
3320.82	0.901243
3330.46	0.901525
3340.1	0.900926
3349.75	0.899213
3359.39	0.899356
3369.03	0.899182
3378.67	0.89912
3388.32	0.898948
3397.96	0.898003
3407.6	0.897391
3417.24	0.895589
3426.89	0.896826
3436.53	0.896596
3446.17	0.895305
3455.81	0.895662
3465.45	0.894703
3475.1	0.895097
3484.74	0.895048
3494.38	0.894055
3504.02	0.894218
3513.67	0.89397
3523.31	0.895447
3532.95	0.894342
3542.59	0.895743
3552.24	0.894153
3561.88	0.894196
3571.52	0.894339
3581.16	0.895235
3590.8	0.897435
3600.45	0.898202
3610.09	0.898952
3619.73	0.900204
3629.37	0.901705
3639.02	0.903652
3648.66	0.904396
3658.3	0.905629
3667.94	0.907918
3677.59	0.910058
3687.23	0.912081
3696.87	0.913997
3706.51	0.914942
3716.16	0.915203
3725.8	0.917276
3735.44	0.918863
3745.08	0.919677
3754.72	0.920429
3764.37	0.921382
3774.01	0.922935
3783.65	0.924027
3793.29	0.924851
3802.94	0.926672
3812.58	0.926481
3822.22	0.929411
3831.86	0.928222
3841.51	0.929569
3851.15	0.929277
3860.79	0.928657
3870.43	0.93043
3880.07	0.930906
3889.72	0.933332
3899.36	0.933112
3909	0.934432
3918.64	0.933703
3928.29	0.935193
3937.93	0.93403
3947.57	0.935639
3957.21	0.935186
3966.86	0.937074
3976.5	0.936198
3986.14	0.937888
3995.78	0.937077
