Measurement: Infrared, Infrared Data Processed
Mineral: Valentinite
Rruff sample: R050389
Ideal chemistry: Sb^3+^_2_O_3_
Locality: Bohemia Region, Pribram, Czech Republic
Source: University of Arizona Mineral Museum
Description: Colorless prismatic parallel crystals
Measured chemistry: Sb_2.00_O_3_
x	intensity
399.193	0.570329
408.835	0.519037
418.477	0.463705
428.12	0.421524
437.762	0.382092
447.404	0.355538
457.047	0.33404
466.689	0.316716
476.331	0.304733
485.974	0.316179
495.616	0.329868
505.258	0.338156
514.901	0.349257
524.543	0.393401
534.185	0.416943
543.828	0.384411
553.47	0.344349
563.112	0.306785
572.755	0.285121
582.397	0.298514
592.039	0.238951
601.682	0.190389
611.324	0.170868
620.966	0.155166
630.609	0.140776
640.251	0.131336
649.893	0.138312
659.536	0.17907
669.178	0.268649
678.82	0.322415
688.463	0.263302
698.105	0.179287
707.747	0.125637
717.39	0.0907135
727.032	0.070668
736.674	0.0595565
746.317	0.0509375
755.959	0.0440637
765.601	0.0400245
775.244	0.0391958
784.886	0.036631
794.528	0.0352152
804.171	0.0313799
813.813	0.0261679
823.455	0.0242843
833.098	0.0228231
842.74	0.022248
852.382	0.0217905
862.025	0.0222952
871.667	0.0222832
881.309	0.0224498
890.952	0.0229916
900.594	0.0243904
910.236	0.026974
919.879	0.030239
929.521	0.0308853
939.163	0.0323876
948.806	0.0335643
958.448	0.0348418
968.09	0.0370016
977.733	0.0396828
987.375	0.0425048
997.017	0.0449932
1006.66	0.0487101
1016.3	0.0527572
1025.94	0.05645
1035.59	0.0605314
1045.23	0.0639317
1054.87	0.0678592
1064.51	0.0715833
1074.16	0.0802884
1083.8	0.0875104
1093.44	0.0848276
1103.08	0.0779004
1112.72	0.0742641
1122.37	0.0731118
1132.01	0.0696157
1141.65	0.0651791
1151.3	0.0622016
1160.94	0.0629666
1170.58	0.0649558
1180.22	0.0653832
1189.86	0.0620907
1199.51	0.055758
1209.15	0.0512542
1218.79	0.04887
1228.43	0.0483118
1238.08	0.048211
1247.72	0.049418
1257.36	0.0501492
1267	0.0510098
1276.64	0.0530648
1286.29	0.0513793
1295.93	0.051074
1305.57	0.0515577
1315.21	0.0519956
1324.86	0.0528216
1334.5	0.0542275
1344.14	0.0558169
1353.78	0.0575487
1363.43	0.0599394
1373.07	0.0626656
1382.71	0.0627569
1392.35	0.0620174
1401.99	0.0635231
1411.64	0.0654736
1421.28	0.0678223
1430.92	0.070152
1440.57	0.072429
1450.21	0.074395
1459.85	0.0767255
1469.49	0.0729595
1479.13	0.0681942
1488.78	0.0677325
1498.42	0.0681423
1508.06	0.0690316
1517.7	0.0697687
1527.35	0.0711257
1536.99	0.0726414
1546.63	0.0735892
1556.27	0.0749283
1565.91	0.075919
1575.56	0.0776341
1585.2	0.0789052
1594.84	0.0807517
1604.48	0.0822482
1614.13	0.0838107
1623.77	0.0852095
1633.41	0.0860139
1643.05	0.0865321
1652.7	0.087923
1662.34	0.0874137
1671.98	0.0875135
1681.62	0.0885808
1691.27	0.0899721
1700.91	0.092218
1710.55	0.0929776
1720.19	0.0932476
1729.84	0.0931926
1739.48	0.0914624
1749.12	0.0903923
1758.76	0.0912198
1768.4	0.0926433
1778.05	0.0935469
1787.69	0.094812
1797.33	0.096098
1806.97	0.096893
1816.62	0.097997
1826.26	0.0994636
1835.9	0.100408
1845.54	0.101726
1855.18	0.103201
1864.83	0.104359
1874.47	0.1059
1884.11	0.106658
1893.75	0.108228
1903.4	0.109807
1913.04	0.11105
1922.68	0.111519
1932.32	0.113114
1941.97	0.113729
1951.61	0.114802
1961.25	0.115522
1970.89	0.118474
1980.54	0.122229
1990.18	0.120361
1999.82	0.122151
2009.46	0.12271
2019.11	0.125092
2028.75	0.126455
2038.39	0.12759
2048.03	0.12757
2057.67	0.128009
2067.32	0.129834
2076.96	0.130372
2086.6	0.131336
2096.24	0.132311
2105.89	0.134051
2115.53	0.134623
2125.17	0.134885
2134.81	0.13513
2144.45	0.135578
2154.1	0.135494
2163.74	0.141348
2173.38	0.141921
2183.02	0.142687
2192.67	0.144963
2202.31	0.146191
2211.95	0.146386
2221.59	0.147358
2231.24	0.149318
2240.88	0.150382
2250.52	0.150317
2260.16	0.152057
2269.8	0.15359
2279.45	0.15434
2289.09	0.15546
2298.73	0.155179
2308.38	0.155545
2318.02	0.156386
2327.66	0.156919
2337.3	0.157336
2346.94	0.158191
2356.59	0.159031
2366.23	0.159896
2375.87	0.16081
2385.51	0.161635
2395.16	0.163105
2404.8	0.163951
2414.44	0.165464
2424.08	0.166709
2433.72	0.167627
2443.37	0.16864
2453.01	0.170544
2462.65	0.171401
2472.29	0.171806
2481.94	0.173037
2491.58	0.174431
2501.22	0.175379
2510.86	0.176359
2520.51	0.177946
2530.15	0.179198
2539.79	0.17979
2549.43	0.181449
2559.07	0.182467
2568.72	0.183106
2578.36	0.184566
2588	0.185276
2597.64	0.186289
2607.29	0.187604
2616.93	0.188592
2626.57	0.188909
2636.21	0.189975
2645.86	0.19077
2655.5	0.191481
2665.14	0.191867
2674.78	0.192627
2684.43	0.193913
2694.07	0.195522
2703.71	0.19654
2713.35	0.197943
2722.99	0.19918
2732.64	0.200498
2742.28	0.201435
2751.92	0.203019
2761.56	0.204345
2771.21	0.20614
2780.85	0.207625
2790.49	0.209444
2800.13	0.21144
2809.78	0.213814
2819.42	0.216421
2829.06	0.220993
2838.7	0.229193
2848.34	0.241785
2857.99	0.241999
2867.63	0.235967
2877.27	0.234708
2886.91	0.237932
2896.56	0.246218
2906.2	0.255652
2915.84	0.268341
2925.48	0.274638
2935.13	0.253589
2944.77	0.242773
2954.41	0.247456
2964.05	0.240266
2973.7	0.228415
2983.34	0.225598
2992.98	0.226746
3002.62	0.227538
3012.26	0.229454
3021.91	0.230705
3031.55	0.232744
3041.19	0.233734
3050.83	0.235911
3060.48	0.237657
3070.12	0.238527
3079.76	0.240408
3089.4	0.242428
3099.05	0.243585
3108.69	0.245253
3118.33	0.246541
3127.97	0.248099
3137.61	0.249499
3147.26	0.251188
3156.9	0.253483
3166.54	0.254332
3176.18	0.255416
3185.83	0.256725
3195.47	0.258025
3205.11	0.259379
3214.75	0.260319
3224.4	0.260492
3234.04	0.26211
3243.68	0.262808
3253.32	0.264553
3262.97	0.265016
3272.61	0.265367
3282.25	0.266973
3291.89	0.267668
3301.53	0.268158
3311.18	0.268824
3320.82	0.269589
3330.46	0.270953
3340.1	0.272156
3349.75	0.27153
3359.39	0.272518
3369.03	0.272327
3378.67	0.272679
3388.32	0.27323
3397.96	0.272973
3407.6	0.273661
3417.24	0.273108
3426.89	0.273367
3436.53	0.274231
3446.17	0.273432
3455.81	0.273392
3465.45	0.273057
3475.1	0.272744
3484.74	0.272909
3494.38	0.272339
3504.02	0.272724
3513.67	0.272091
3523.31	0.272049
3532.95	0.272665
3542.59	0.272884
3552.24	0.272616
3561.88	0.272169
3571.52	0.271197
3581.16	0.27251
3590.8	0.27223
3600.45	0.272955
3610.09	0.273638
3619.73	0.274397
3629.37	0.274521
3639.02	0.275158
3648.66	0.275921
3658.3	0.276562
3667.94	0.278111
3677.59	0.277581
3687.23	0.279609
3696.87	0.279949
3706.51	0.280317
3716.16	0.282345
3725.8	0.282096
3735.44	0.283783
3745.08	0.285639
3754.72	0.284639
3764.37	0.286421
3774.01	0.287954
3783.65	0.287654
3793.29	0.288626
3802.94	0.290071
3812.58	0.290302
3822.22	0.291382
3831.86	0.293289
3841.51	0.293197
3851.15	0.294637
3860.79	0.294704
3870.43	0.295908
3880.07	0.295987
3889.72	0.296615
3899.36	0.298257
3909	0.299514
3918.64	0.299474
3928.29	0.300194
3937.93	0.300658
3947.57	0.30236
3957.21	0.302862
3966.86	0.302949
3976.5	0.30431
3986.14	0.305178
3995.78	0.30681
