Measurement: Infrared, Infrared Data Processed
Mineral: Vanadinite
Rruff sample: R050171
Ideal chemistry: Pb^2+^_5_(V^5+^O_4_)_3_Cl
Locality: Hamburg mine, La Paz County, Arizona, USA
Source: Marcus Origlieri
Description: Red prismatic hexagonal crystals
Measured chemistry: Pb_5.00_((V_0.89_As_0.11_)O_4_)_3_Cl_1.00_
x	intensity
374.123	0.281194
383.765	0.24655
393.407	0.210511
403.05	0.205604
412.692	0.220298
422.334	0.20071
431.976	0.172137
441.619	0.195039
451.261	0.22771
460.904	0.251569
470.546	0.270695
480.188	0.2833
489.83	0.296365
499.473	0.313335
509.115	0.329437
518.758	0.337303
528.4	0.350604
538.042	0.364439
547.684	0.377642
557.327	0.39228
566.969	0.405602
576.611	0.421038
586.254	0.438362
595.896	0.456687
605.538	0.47545
615.181	0.494122
624.823	0.514442
634.466	0.535282
644.108	0.553721
653.75	0.571965
663.393	0.588568
673.035	0.603072
682.677	0.61294
692.319	0.61767
701.962	0.616416
711.604	0.598031
721.246	0.553669
730.889	0.494631
740.531	0.43403
750.173	0.384505
759.816	0.359301
769.458	0.360545
779.101	0.382854
788.743	0.403349
798.385	0.383976
808.028	0.312047
817.67	0.254034
827.312	0.230031
836.955	0.190875
846.597	0.144908
856.239	0.103268
865.881	0.0702381
875.524	0.0516541
885.166	0.0389299
894.808	0.0302923
904.451	0.024885
914.093	0.0213115
923.736	0.0202422
933.378	0.0191401
943.02	0.020569
952.663	0.0252173
962.305	0.0271334
971.947	0.0275422
981.59	0.0293899
991.232	0.0332268
1000.87	0.03819
1010.52	0.0396671
1020.16	0.0420091
1029.8	0.0448649
1039.44	0.0496514
1049.09	0.0553583
1058.73	0.0602495
1068.37	0.0638
1078.01	0.0686635
1087.65	0.0734895
1097.3	0.0771755
1106.94	0.0799539
1116.58	0.0806571
1126.22	0.0818169
1135.87	0.0837379
1145.51	0.0861723
1155.15	0.088701
1164.79	0.0923636
1174.44	0.0952022
1184.08	0.0979559
1193.72	0.10103
1203.36	0.103382
1213.01	0.106295
1222.65	0.109279
1232.29	0.112796
1241.93	0.116495
1251.58	0.120427
1261.22	0.124417
1270.86	0.128975
1280.5	0.133242
1290.14	0.135855
1299.79	0.139782
1309.43	0.143736
1319.07	0.147328
1328.71	0.150587
1338.36	0.154169
1348	0.157988
1357.64	0.16167
1367.28	0.165695
1376.92	0.169997
1386.57	0.173489
1396.21	0.17721
1405.85	0.180611
1415.49	0.183594
1425.14	0.186716
1434.78	0.190414
1444.42	0.193952
1454.06	0.197118
1463.71	0.199564
1473.35	0.200781
1482.99	0.203037
1492.63	0.206165
1502.28	0.209581
1511.92	0.212593
1521.56	0.215401
1531.2	0.217698
1540.85	0.219377
1550.49	0.220878
1560.13	0.222145
1569.77	0.22312
1579.41	0.22478
1589.06	0.226375
1598.7	0.227702
1608.34	0.229387
1617.98	0.231619
1627.63	0.233873
1637.27	0.235879
1646.91	0.237933
1656.55	0.239415
1666.19	0.240486
1675.84	0.241969
1685.48	0.243677
1695.12	0.245298
1704.77	0.247355
1714.41	0.249329
1724.05	0.251773
1733.69	0.253851
1743.33	0.254439
1752.98	0.256204
1762.62	0.259009
1772.26	0.261084
1781.9	0.26333
1791.55	0.26501
1801.19	0.266636
1810.83	0.26895
1820.47	0.271379
1830.12	0.273375
1839.76	0.275752
1849.4	0.2777
1859.04	0.280266
1868.68	0.282344
1878.33	0.284599
1887.97	0.286385
1897.61	0.288753
1907.25	0.290476
1916.9	0.292608
1926.54	0.294243
1936.18	0.295443
1945.82	0.298133
1955.46	0.299082
1965.11	0.301297
1974.75	0.302762
1984.39	0.306977
1994.04	0.308524
2003.68	0.305859
2013.32	0.309482
2022.96	0.311574
2032.6	0.314897
2042.25	0.316757
2051.89	0.317589
2061.53	0.318715
2071.17	0.320965
2080.82	0.322729
2090.46	0.323179
2100.1	0.324753
2109.74	0.325896
2119.39	0.328092
2129.03	0.327694
2138.67	0.329331
2148.31	0.330015
2157.95	0.330644
2167.6	0.337129
2177.24	0.336088
2186.88	0.339194
2196.52	0.33991
2206.17	0.341413
2215.81	0.342824
2225.45	0.345276
2235.09	0.346554
2244.74	0.347836
2254.38	0.349488
2264.02	0.350658
2273.66	0.351808
2283.3	0.353916
2292.95	0.354441
2302.59	0.354979
2312.23	0.356709
2321.87	0.358301
2331.52	0.357515
2341.16	0.358972
2350.8	0.359748
2360.44	0.361399
2370.09	0.362453
2379.73	0.363674
2389.37	0.365376
2399.01	0.366727
2408.66	0.368978
2418.3	0.369273
2427.94	0.370928
2437.58	0.372364
2447.22	0.374212
2456.87	0.375468
2466.51	0.377148
2476.15	0.377985
2485.79	0.378705
2495.44	0.379797
2505.08	0.38164
2514.72	0.382194
2524.36	0.383841
2534.01	0.385813
2543.65	0.386753
2553.29	0.387877
2562.93	0.389049
2572.57	0.390533
2582.22	0.39126
2591.86	0.393209
2601.5	0.394041
2611.14	0.39484
2620.79	0.396715
2630.43	0.397739
2640.07	0.398563
2649.71	0.399596
2659.36	0.400267
2669	0.401451
2678.64	0.402239
2688.28	0.403754
2697.93	0.405056
2707.57	0.405705
2717.21	0.407371
2726.85	0.408796
2736.49	0.409737
2746.14	0.410757
2755.78	0.411974
2765.42	0.413477
2775.06	0.414518
2784.71	0.415941
2794.35	0.416235
2803.99	0.418238
2813.63	0.419318
2823.28	0.421249
2832.92	0.423197
2842.56	0.425148
2852.2	0.427941
2861.84	0.427441
2871.49	0.428048
2881.13	0.429398
2890.77	0.430755
2900.41	0.433064
2910.06	0.435608
2919.7	0.438081
2929.34	0.437505
2938.98	0.435473
2948.62	0.435928
2958.27	0.437012
2967.91	0.436031
2977.55	0.435905
2987.2	0.436374
2996.84	0.437886
3006.48	0.438755
3016.12	0.439833
3025.76	0.441339
3035.41	0.442102
3045.05	0.443125
3054.69	0.444887
3064.33	0.446145
3073.98	0.446872
3083.62	0.448919
3093.26	0.449385
3102.9	0.450105
3112.55	0.451643
3122.19	0.453025
3131.83	0.454614
3141.47	0.455438
3151.11	0.456454
3160.76	0.45822
3170.4	0.459046
3180.04	0.460142
3189.68	0.46152
3199.33	0.46261
3208.97	0.464402
3218.61	0.464768
3228.25	0.466401
3237.9	0.467282
3247.54	0.468287
3257.18	0.470016
3266.82	0.470156
3276.47	0.472564
3286.11	0.472176
3295.75	0.474327
3305.39	0.474945
3315.03	0.475689
3324.68	0.476756
3334.32	0.478034
3343.96	0.47868
3353.6	0.479676
3363.25	0.480842
3372.89	0.480731
3382.53	0.482562
3392.17	0.482744
3401.82	0.485123
3411.46	0.484702
3421.1	0.485364
3430.74	0.487342
3440.39	0.487013
3450.03	0.487975
3459.67	0.488951
3469.31	0.489878
3478.95	0.490831
3488.6	0.492199
3498.24	0.492052
3507.88	0.493771
3517.52	0.49451
3527.17	0.494269
3536.81	0.496076
3546.45	0.495745
3556.09	0.497242
3565.74	0.497752
3575.38	0.499313
3585.02	0.499011
3594.66	0.500136
3604.3	0.500702
3613.95	0.502335
3623.59	0.503725
3633.23	0.504596
3642.87	0.505749
3652.52	0.505684
3662.16	0.506183
3671.8	0.50886
3681.44	0.508401
3691.09	0.511131
3700.73	0.51177
3710.37	0.512406
3720.01	0.513863
3729.66	0.514795
3739.3	0.516902
3748.94	0.516066
3758.58	0.517802
3768.22	0.517769
3777.87	0.519544
3787.51	0.520351
3797.15	0.522217
3806.79	0.521287
3816.44	0.521842
3826.08	0.524081
3835.72	0.524431
3845.36	0.524753
3855.01	0.526616
3864.65	0.528004
3874.29	0.527092
3883.93	0.528336
3893.57	0.529527
3903.22	0.530235
3912.86	0.530674
3922.5	0.530575
3932.14	0.532219
3941.79	0.532925
3951.43	0.533617
3961.07	0.536073
3970.71	0.535403
3980.36	0.537502
3990	0.538276
3999.64	0.538708
