Measurement: Infrared, Infrared Data Processed
Mineral: Vanadinite
Rruff sample: R050530
Ideal chemistry: Pb^2+^_5_(V^5+^O_4_)_3_Cl
Locality: Hillsboro, Sierra County, New Mexico, USA
Source: University of Arizona Mineral Museum
Description: Yellow hexagonal prisms
Measured chemistry: Pb_5.00_((V_0.93_As_0.07_)O_4_)_3_Cl_1.00_
x	intensity
399.193	0.594137
408.835	0.550301
418.477	0.545596
428.12	0.36717
437.762	0.331449
447.404	0.386771
457.047	0.443472
466.689	0.489186
476.331	0.517912
485.974	0.547796
495.616	0.574315
505.258	0.603121
514.901	0.627332
524.543	0.637217
534.185	0.653436
543.828	0.674347
553.47	0.690905
563.112	0.707343
572.755	0.726492
582.397	0.73814
592.039	0.754244
601.682	0.771561
611.324	0.796406
620.966	0.812264
630.609	0.837757
640.251	0.856112
649.893	0.874105
659.536	0.891803
669.178	0.910255
678.82	0.913989
688.463	0.91779
698.105	0.90742
707.747	0.882151
717.39	0.823671
727.032	0.726828
736.674	0.631612
746.317	0.549689
755.959	0.503312
765.601	0.490457
775.244	0.498747
784.886	0.524606
794.528	0.521294
804.171	0.437234
813.813	0.335889
823.455	0.291588
833.098	0.250351
842.74	0.190736
852.382	0.136207
862.025	0.0902601
871.667	0.0609901
881.309	0.0443066
890.952	0.0330623
900.594	0.0257583
910.236	0.0214318
919.879	0.0187151
929.521	0.0174
939.163	0.0168256
948.806	0.0175268
958.448	0.0177668
968.09	0.0185893
977.733	0.0199344
987.375	0.0224812
997.017	0.0253155
1006.66	0.0285888
1016.3	0.0309256
1025.94	0.0328989
1035.59	0.0352417
1045.23	0.0382526
1054.87	0.0408198
1064.51	0.0430675
1074.16	0.0456238
1083.8	0.0482259
1093.44	0.0503155
1103.08	0.0525382
1112.72	0.0545121
1122.37	0.0560003
1132.01	0.0578959
1141.65	0.0595822
1151.3	0.0612965
1160.94	0.0630835
1170.58	0.0647201
1180.22	0.0671791
1189.86	0.0694128
1199.51	0.0715607
1209.15	0.073452
1218.79	0.0753937
1228.43	0.0780209
1238.08	0.0801261
1247.72	0.0827719
1257.36	0.0855847
1267	0.0886638
1276.64	0.0926962
1286.29	0.0933742
1295.93	0.0947969
1305.57	0.0970027
1315.21	0.098363
1324.86	0.100089
1334.5	0.101848
1344.14	0.104094
1353.78	0.106188
1363.43	0.10854
1373.07	0.110858
1382.71	0.113528
1392.35	0.115575
1401.99	0.117307
1411.64	0.11891
1421.28	0.120523
1430.92	0.122807
1440.57	0.124783
1450.21	0.126206
1459.85	0.126836
1469.49	0.126684
1479.13	0.127477
1488.78	0.1282
1498.42	0.129259
1508.06	0.130731
1517.7	0.132014
1527.35	0.132929
1536.99	0.133094
1546.63	0.132846
1556.27	0.133022
1565.91	0.132857
1575.56	0.133233
1585.2	0.133354
1594.84	0.133304
1604.48	0.133096
1614.13	0.133374
1623.77	0.133781
1633.41	0.134211
1643.05	0.134258
1652.7	0.134823
1662.34	0.134511
1671.98	0.134654
1681.62	0.135081
1691.27	0.135555
1700.91	0.136073
1710.55	0.136083
1720.19	0.136604
1729.84	0.13739
1739.48	0.136175
1749.12	0.136277
1758.76	0.137083
1768.4	0.138843
1778.05	0.138771
1787.69	0.139142
1797.33	0.139527
1806.97	0.140225
1816.62	0.141077
1826.26	0.141354
1835.9	0.141157
1845.54	0.142659
1855.18	0.142897
1864.83	0.143256
1874.47	0.144063
1884.11	0.144557
1893.75	0.144794
1903.4	0.144786
1913.04	0.145181
1922.68	0.145591
1932.32	0.145549
1941.97	0.146259
1951.61	0.146819
1961.25	0.146445
1970.89	0.146715
1980.54	0.149581
1990.18	0.147459
1999.82	0.14628
2009.46	0.147911
2019.11	0.147436
2028.75	0.146891
2038.39	0.146539
2048.03	0.14876
2057.67	0.148565
2067.32	0.147263
2076.96	0.149083
2086.6	0.148563
2096.24	0.148043
2105.89	0.148245
2115.53	0.149415
2125.17	0.147207
2134.81	0.147654
2144.45	0.149689
2154.1	0.147522
2163.74	0.150893
2173.38	0.146941
2183.02	0.148814
2192.67	0.148359
2202.31	0.148334
2211.95	0.149739
2221.59	0.14815
2231.24	0.148609
2240.88	0.148993
2250.52	0.149352
2260.16	0.148743
2269.8	0.148548
2279.45	0.149165
2289.09	0.149155
2298.73	0.149398
2308.38	0.149433
2318.02	0.149006
2327.66	0.148388
2337.3	0.14839
2346.94	0.148625
2356.59	0.148808
2366.23	0.148593
2375.87	0.148594
2385.51	0.148466
2395.16	0.14859
2404.8	0.148675
2414.44	0.148546
2424.08	0.148373
2433.72	0.149459
2443.37	0.149316
2453.01	0.148485
2462.65	0.148681
2472.29	0.148746
2481.94	0.149657
2491.58	0.148665
2501.22	0.149022
2510.86	0.149245
2520.51	0.148987
2530.15	0.148415
2539.79	0.148497
2549.43	0.148754
2559.07	0.148758
2568.72	0.149038
2578.36	0.149106
2588	0.148862
2597.64	0.148616
2607.29	0.148782
2616.93	0.148487
2626.57	0.148654
2636.21	0.148345
2645.86	0.147813
2655.5	0.148009
2665.14	0.147635
2674.78	0.147266
2684.43	0.147719
2694.07	0.147785
2703.71	0.147717
2713.35	0.147139
2722.99	0.147543
2732.64	0.147102
2742.28	0.147036
2751.92	0.147362
2761.56	0.147054
2771.21	0.147683
2780.85	0.14767
2790.49	0.146996
2800.13	0.147442
2809.78	0.147583
2819.42	0.147478
2829.06	0.147788
2838.7	0.147545
2848.34	0.147891
2857.99	0.147938
2867.63	0.147685
2877.27	0.147834
2886.91	0.147593
2896.56	0.147892
2906.2	0.148202
2915.84	0.148225
2925.48	0.146632
2935.13	0.14611
2944.77	0.146303
2954.41	0.146667
2964.05	0.146749
2973.7	0.145653
2983.34	0.145037
2992.98	0.145403
3002.62	0.145634
3012.26	0.146066
3021.91	0.14558
3031.55	0.146147
3041.19	0.14586
3050.83	0.14592
3060.48	0.146151
3070.12	0.146263
3079.76	0.145984
3089.4	0.145691
3099.05	0.146233
3108.69	0.14596
3118.33	0.145539
3127.97	0.145844
3137.61	0.146232
3147.26	0.14565
3156.9	0.145366
3166.54	0.146174
3176.18	0.146089
3185.83	0.145171
3195.47	0.146188
3205.11	0.145057
3214.75	0.146355
3224.4	0.144818
3234.04	0.145664
3243.68	0.146194
3253.32	0.145874
3262.97	0.145068
3272.61	0.146382
3282.25	0.14581
3291.89	0.146012
3301.53	0.145631
3311.18	0.146022
3320.82	0.14606
3330.46	0.145689
3340.1	0.146375
3349.75	0.144741
3359.39	0.147457
3369.03	0.145385
3378.67	0.146027
3388.32	0.145557
3397.96	0.145762
3407.6	0.146316
3417.24	0.145567
3426.89	0.146081
3436.53	0.145149
3446.17	0.145321
3455.81	0.145251
3465.45	0.144367
3475.1	0.144771
3484.74	0.144639
3494.38	0.145145
3504.02	0.14417
3513.67	0.145425
3523.31	0.143924
3532.95	0.143129
3542.59	0.144955
3552.24	0.143043
3561.88	0.144105
3571.52	0.1447
3581.16	0.14448
3590.8	0.14408
3600.45	0.143557
3610.09	0.142953
3619.73	0.144366
3629.37	0.144396
3639.02	0.142693
3648.66	0.14385
3658.3	0.144987
3667.94	0.143848
3677.59	0.143351
3687.23	0.143045
3696.87	0.143965
3706.51	0.143623
3716.16	0.142186
3725.8	0.144756
3735.44	0.144599
3745.08	0.145452
3754.72	0.145288
3764.37	0.14275
3774.01	0.143332
3783.65	0.143226
3793.29	0.144084
3802.94	0.144488
3812.58	0.143393
3822.22	0.142976
3831.86	0.142956
3841.51	0.1433
3851.15	0.143467
3860.79	0.144241
3870.43	0.143018
3880.07	0.143909
3889.72	0.143399
3899.36	0.143983
3909	0.143604
3918.64	0.14366
3928.29	0.144032
3937.93	0.144884
3947.57	0.144759
3957.21	0.143744
3966.86	0.142861
3976.5	0.144511
3986.14	0.142894
3995.78	0.144315
