Measurement: Infrared, Infrared Data Processed
Mineral: Vanadinite
Rruff sample: R050189
Ideal chemistry: Pb^2+^_5_(V^5+^O_4_)_3_Cl
Locality: Puzzler mine, Yuma County, Arizona, USA
Source: Dave Bunk Minerals
Description: Red and green hexagonal prisms
Measured chemistry: Pb_5.00_(V_1.00_O_4_)_3_Cl_1.00_
x	intensity
50.1401	0.0271649
52.0686	0.0137894
53.9971	0.01463
55.9255	0.0231323
57.854	0.0221753
59.7825	0.0278746
61.7109	0.0299623
63.6394	0.0311226
65.5679	0.0291178
67.4963	0.0280304
69.4248	0.0304133
71.3533	0.0324583
73.2817	0.0320908
75.2102	0.03162
77.1387	0.0327132
79.0671	0.0343789
80.9956	0.0338295
82.9241	0.0327268
84.8525	0.0321335
86.781	0.0341315
88.7095	0.0344079
90.6379	0.0350671
92.5664	0.035802
94.4948	0.0359691
96.4233	0.0358668
98.3518	0.0360583
100.28	0.0356793
102.209	0.0358133
104.137	0.0361653
106.066	0.037228
107.994	0.0378979
109.923	0.0383673
111.851	0.0381321
113.779	0.0385178
115.708	0.0397028
117.636	0.040228
119.565	0.0409737
121.493	0.0417588
123.422	0.0414954
125.35	0.0420672
127.279	0.0425586
129.207	0.0425001
131.136	0.0428177
133.064	0.0430611
134.993	0.0428216
136.921	0.0425656
138.85	0.042423
140.778	0.042709
142.707	0.0424324
144.635	0.0418883
146.563	0.0416207
148.492	0.0419546
150.42	0.04251
152.349	0.0432449
154.277	0.0427338
156.206	0.0423053
158.134	0.0426579
160.063	0.0429006
161.991	0.0427292
163.92	0.0425331
165.848	0.0418813
167.777	0.0412931
169.705	0.0406296
171.633	0.0401315
173.562	0.0392441
175.49	0.0387085
177.419	0.0380725
179.347	0.0370519
181.276	0.0358569
183.204	0.0346128
185.133	0.033233
187.061	0.0323676
188.99	0.0313278
190.918	0.0302496
192.847	0.0292167
194.775	0.0282217
196.704	0.0273092
198.632	0.0266491
200.56	0.0257685
202.489	0.0250101
204.417	0.0252878
206.346	0.0263312
208.274	0.0275499
210.203	0.0292019
212.131	0.030839
214.06	0.0327012
215.988	0.034565
217.917	0.036025
219.845	0.0369428
221.774	0.0370862
223.702	0.0366878
225.631	0.0358909
227.559	0.0349455
229.488	0.0336443
231.416	0.0322328
233.344	0.0307899
235.273	0.0292963
237.201	0.0280389
239.13	0.0270243
241.058	0.026181
242.987	0.0253697
244.915	0.0247707
246.844	0.0244886
248.772	0.0242159
250.701	0.0240822
252.629	0.0238291
254.558	0.0237669
256.486	0.0236402
258.414	0.0235356
260.343	0.0237476
262.271	0.0241889
264.2	0.0246066
266.128	0.0250952
268.057	0.0254927
269.985	0.0261667
271.914	0.0271844
273.842	0.0280345
275.771	0.028657
277.699	0.0293873
279.628	0.0304377
281.556	0.0314818
283.485	0.032695
285.413	0.0339214
287.341	0.0349209
289.27	0.0361467
291.198	0.0379285
293.127	0.039605
295.055	0.0409456
296.984	0.0424472
298.912	0.0443757
300.841	0.0463754
302.769	0.0485903
304.698	0.0507391
306.626	0.0528192
308.555	0.0553213
310.483	0.0580288
312.411	0.0606658
314.34	0.0631294
316.269	0.0644594
318.197	0.0641673
320.125	0.0619097
322.054	0.0586439
323.982	0.0552545
325.911	0.0527138
327.839	0.0510164
329.768	0.0502394
331.696	0.0503879
333.625	0.051302
335.553	0.0525224
337.482	0.053657
339.41	0.0545788
341.339	0.05579
343.267	0.057129
345.195	0.0587146
347.124	0.0603003
349.052	0.0616873
350.981	0.0632001
352.909	0.064894
354.838	0.0665627
356.766	0.0683137
358.695	0.0700203
360.623	0.0716015
362.552	0.0733799
364.48	0.0754869
366.409	0.07742
368.337	0.078319
370.265	0.0777321
372.194	0.0755736
374.122	0.0724734
376.051	0.0703418
377.979	0.0697225
379.908	0.0695717
381.836	0.0687572
383.765	0.0671584
385.693	0.0652328
387.622	0.0633503
389.55	0.0615049
391.479	0.0602605
393.407	0.0594779
395.336	0.0589972
397.264	0.0590054
399.192	0.0592304
401.121	0.0593857
403.049	0.05951
404.978	0.0597329
406.906	0.0600149
408.835	0.0603264
410.763	0.0607401
412.692	0.0612127
414.62	0.061949
416.549	0.0625912
418.477	0.0627273
420.406	0.0619896
422.334	0.0607951
424.262	0.0595345
426.191	0.058677
428.12	0.0581392
430.048	0.0577678
431.976	0.0577709
433.905	0.0585025
435.833	0.0593769
437.762	0.0601435
439.69	0.0607296
441.619	0.0611213
443.547	0.061994
445.476	0.062903
447.404	0.0639037
449.333	0.0647879
451.261	0.0653687
453.19	0.0662374
455.118	0.0672058
457.046	0.0681069
458.975	0.0685952
460.903	0.0690281
462.832	0.0699344
464.76	0.0708345
466.689	0.0714653
468.617	0.0724047
470.546	0.0730341
472.474	0.0735062
474.403	0.0742478
476.331	0.0748575
478.26	0.0754337
480.188	0.0760389
482.116	0.0763656
484.045	0.0770988
485.974	0.0777417
487.902	0.0783602
489.83	0.0791949
491.759	0.079703
493.687	0.0802939
495.616	0.0809466
497.544	0.0819502
499.473	0.0831646
501.401	0.083881
503.33	0.0844595
505.258	0.0850581
507.187	0.0857142
509.115	0.0861588
511.043	0.0865846
512.972	0.0868976
514.9	0.0870893
516.829	0.0877837
518.757	0.0885943
520.686	0.0892124
522.614	0.0897064
524.543	0.0904111
526.471	0.091193
528.4	0.0918986
530.328	0.0923484
532.257	0.0928206
534.185	0.0933445
536.114	0.094258
538.042	0.0952251
539.971	0.0962563
541.899	0.0966309
543.827	0.0965669
545.756	0.0965708
547.684	0.0965139
549.613	0.0965175
551.541	0.0971163
553.47	0.0977356
555.398	0.0983961
557.327	0.0991414
559.255	0.100105
561.184	0.101117
563.112	0.101734
565.041	0.10166
566.969	0.101491
568.898	0.101864
570.826	0.102586
572.755	0.103094
574.683	0.103793
576.611	0.104882
578.54	0.105706
580.468	0.106198
582.397	0.106678
584.325	0.107336
586.254	0.107979
588.182	0.108734
590.111	0.109619
592.039	0.110394
593.968	0.111117
595.896	0.112007
597.824	0.112837
599.753	0.113741
601.682	0.114607
603.61	0.115077
605.538	0.115965
607.467	0.116689
609.395	0.117638
611.324	0.118778
613.252	0.119359
615.181	0.119978
617.109	0.12077
619.038	0.122129
620.966	0.122969
622.894	0.12314
624.823	0.124506
626.751	0.126088
628.68	0.127428
630.608	0.12908
632.537	0.130329
634.465	0.131157
636.394	0.131958
638.322	0.133028
640.251	0.134404
642.179	0.135661
644.108	0.13687
646.036	0.137704
647.965	0.138575
649.893	0.139637
651.822	0.140847
653.75	0.142187
655.678	0.143256
657.607	0.144227
659.535	0.145446
661.464	0.146827
663.392	0.148413
665.321	0.149597
667.249	0.150754
669.178	0.15184
671.106	0.152559
673.035	0.153297
674.963	0.154576
676.892	0.15587
678.82	0.157162
680.749	0.15792
682.677	0.159035
684.606	0.160131
686.534	0.161303
688.462	0.162077
690.391	0.162833
692.319	0.164436
694.248	0.166325
696.176	0.167989
698.105	0.170344
700.033	0.171527
