Measurement: Infrared, Infrared Data Processed
Mineral: Vayrynenite
Rruff sample: R050590
Ideal chemistry: Mn^2+^Be(PO_4_)OH
Locality: Shengus, Pakistan
Source: Wayne Thompson
Description: Pinkish brown fragment
Measured chemistry: (Mn^2+^_0.91_Fe^2+^_0.04_[box]_0.05_)Be(PO_4_)(OH_0.90_F_0.10_)
x	intensity
399.193	0.0568229
408.835	0.0518614
418.477	0.0692653
428.12	0.0345349
437.762	0.0419865
447.404	0.0572974
457.047	0.0800036
466.689	0.127432
476.331	0.070825
485.974	0.0515002
495.616	0.0727493
505.258	0.106937
514.901	0.137102
524.543	0.0991768
534.185	0.118016
543.828	0.140777
553.47	0.0916453
563.112	0.0834461
572.755	0.101666
582.397	0.14601
592.039	0.118302
601.682	0.153579
611.324	0.140619
620.966	0.0985375
630.609	0.0981764
640.251	0.129528
649.893	0.139243
659.536	0.129297
669.178	0.110574
678.82	0.0896002
688.463	0.0769621
698.105	0.0741613
707.747	0.0752408
717.39	0.0901866
727.032	0.116494
736.674	0.149386
746.317	0.157758
755.959	0.118236
765.601	0.0710932
775.244	0.0472215
784.886	0.056233
794.528	0.0770795
804.171	0.0696649
813.813	0.0377177
823.455	0.0282185
833.098	0.028203
842.74	0.0321316
852.382	0.0400175
862.025	0.0501758
871.667	0.0644824
881.309	0.0837206
890.952	0.108547
900.594	0.114067
910.236	0.130465
919.879	0.150072
929.521	0.113181
939.163	0.0945924
948.806	0.124075
958.448	0.168348
968.09	0.213545
977.733	0.253796
987.375	0.26151
997.017	0.217193
1006.66	0.177357
1016.3	0.161792
1025.94	0.220957
1035.59	0.240639
1045.23	0.264297
1054.87	0.231759
1064.51	0.189991
1074.16	0.191004
1083.8	0.158462
1093.44	0.120734
1103.08	0.0898596
1112.72	0.0627216
1122.37	0.0533245
1132.01	0.0685159
1141.65	0.0566636
1151.3	0.0407046
1160.94	0.0276904
1170.58	0.0259159
1180.22	0.020709
1189.86	0.00887264
1199.51	0.00476656
1209.15	0.00298401
1218.79	0.0019917
1228.43	0.000741105
1238.08	0.000528958
1247.72	0.000105515
1257.36	-0.000113891
1267	-0.000268738
1276.64	-0.000454416
1286.29	-0.000316491
1295.93	-0.000214184
1305.57	7.15114e-05
1315.21	-8.62845e-06
1324.86	-6.26388e-05
1334.5	-7.31751e-05
1344.14	8.78778e-05
1353.78	0.000200362
1363.43	-0.000405405
1373.07	-0.000609053
1382.71	-0.000584083
1392.35	-0.000304271
1401.99	0.000462623
1411.64	0.000303166
1421.28	0.000742345
1430.92	0.00111751
1440.57	0.00142977
1450.21	0.000993617
1459.85	0.000417238
1469.49	0.000855865
1479.13	0.00282938
1488.78	0.00320793
1498.42	0.00318779
1508.06	0.0029475
1517.7	0.00267832
1527.35	0.00262492
1536.99	0.00301084
1546.63	0.00310422
1556.27	0.00296512
1565.91	0.00305979
1575.56	0.0029811
1585.2	0.00276822
1594.84	0.00258703
1604.48	0.00287684
1614.13	0.00239524
1623.77	0.00257277
1633.41	0.00282437
1643.05	0.00313653
1652.7	0.00386779
1662.34	0.00375403
1671.98	0.00349274
1681.62	0.00282959
1691.27	0.00283096
1700.91	0.00212103
1710.55	0.000877885
1720.19	0.000622152
1729.84	-0.000117031
1739.48	-0.00124489
1749.12	0.00167374
1758.76	0.00500258
1768.4	0.00630738
1778.05	0.00554065
1787.69	0.00551945
1797.33	0.00533903
1806.97	0.00463858
1816.62	0.00389903
1826.26	0.00404027
1835.9	0.00380069
1845.54	0.00347444
1855.18	0.0036396
1864.83	0.00362996
1874.47	0.0032392
1884.11	0.00444194
1893.75	0.00241274
1903.4	0.0037134
1913.04	0.00334009
1922.68	0.00282863
1932.32	-3.77103e-05
1941.97	0.00142445
1951.61	-0.000648339
1961.25	-0.000205455
1970.89	-0.0041276
1980.54	0.00184125
1990.18	-0.000537793
1999.82	0.00021054
2009.46	-0.000588716
2019.11	0.0016386
2028.75	0.0029672
2038.39	4.1403e-05
2048.03	0.00253218
2057.67	0.00272805
2067.32	0.00106222
2076.96	0.00354102
2086.6	-4.6322e-06
2096.24	0.00278322
2105.89	0.00274235
2115.53	0.000938714
2125.17	-0.00042127
2134.81	0.0020694
2144.45	-0.00358468
2154.1	-0.00509902
2163.74	0.00460329
2173.38	0.0029625
2183.02	-0.000387695
2192.67	0.00575007
2202.31	0.00557077
2211.95	0.00912452
2221.59	0.00825024
2231.24	0.00946459
2240.88	0.00856474
2250.52	0.00747661
2260.16	0.00810491
2269.8	0.00746148
2279.45	0.0097816
2289.09	0.00995949
2298.73	0.0103786
2308.38	0.0100935
2318.02	0.0110607
2327.66	0.0104101
2337.3	0.00961237
2346.94	0.00958812
2356.59	0.00958188
2366.23	0.00926217
2375.87	0.00812312
2385.51	0.00786335
2395.16	0.00861347
2404.8	0.00801749
2414.44	0.00746621
2424.08	0.00677939
2433.72	0.00834912
2443.37	0.00998384
2453.01	0.00930263
2462.65	0.00909097
2472.29	0.00919307
2481.94	0.00693308
2491.58	0.0109304
2501.22	0.00889213
2510.86	0.00990832
2520.51	0.00901273
2530.15	0.00943179
2539.79	0.00915822
2549.43	0.0103929
2559.07	0.0112906
2568.72	0.00999285
2578.36	0.0086248
2588	0.0099002
2597.64	0.0107434
2607.29	0.0109769
2616.93	0.0110261
2626.57	0.0109147
2636.21	0.0101455
2645.86	0.0107955
2655.5	0.0102071
2665.14	0.0105812
2674.78	0.0104738
2684.43	0.0106004
2694.07	0.0100283
2703.71	0.0106204
2713.35	0.0115409
2722.99	0.0118069
2732.64	0.0115975
2742.28	0.00923757
2751.92	0.012581
2761.56	0.0117122
2771.21	0.0115729
2780.85	0.0128705
2790.49	0.0125657
2800.13	0.0128267
2809.78	0.0128208
2819.42	0.012206
2829.06	0.0127962
2838.7	0.0136882
2848.34	0.0131921
2857.99	0.0137748
2867.63	0.0125458
2877.27	0.0128876
2886.91	0.0116884
2896.56	0.013443
2906.2	0.0122736
2915.84	0.0150962
2925.48	0.0148048
2935.13	0.0167906
2944.77	0.0177555
2954.41	0.0175859
2964.05	0.0201277
2973.7	0.019336
2983.34	0.0221594
2992.98	0.0232836
3002.62	0.0288957
3012.26	0.0260763
3021.91	0.0290851
3031.55	0.0268046
3041.19	0.029316
3050.83	0.0310035
3060.48	0.0346937
3070.12	0.034939
3079.76	0.0371563
3089.4	0.0398229
3099.05	0.04049
3108.69	0.0417889
3118.33	0.0451285
3127.97	0.0487467
3137.61	0.0507791
3147.26	0.05418
3156.9	0.0621266
3166.54	0.0660282
3176.18	0.0770471
3185.83	0.0907637
3195.47	0.108818
3205.11	0.127047
3214.75	0.131972
3224.4	0.116882
3234.04	0.0876698
3243.68	0.0624523
3253.32	0.0459879
3262.97	0.0330726
3272.61	0.0276568
3282.25	0.0238888
3291.89	0.0220321
3301.53	0.0227765
3311.18	0.0194071
3320.82	0.0194863
3330.46	0.0202209
3340.1	0.0161915
3349.75	0.0169397
3359.39	0.0144029
3369.03	0.012803
3378.67	0.0156843
3388.32	0.0120693
3397.96	0.0132542
3407.6	0.0127856
3417.24	0.00980757
3426.89	0.0102627
3436.53	0.00859826
3446.17	0.010242
3455.81	0.0097191
3465.45	0.0106905
3475.1	0.0117737
3484.74	0.0109063
3494.38	0.00907878
3504.02	0.0107578
3513.67	0.0105643
3523.31	0.0093085
3532.95	0.0120216
3542.59	0.00933253
3552.24	0.00775824
3561.88	0.010335
3571.52	0.0120004
3581.16	0.011701
3590.8	0.0139938
3600.45	0.00963389
3610.09	0.0135671
3619.73	0.00864499
3629.37	0.0101565
3639.02	0.00895016
3648.66	0.00461862
3658.3	0.011862
3667.94	0.00997274
3677.59	0.0111521
3687.23	0.0121235
3696.87	0.0148032
3706.51	0.0113902
3716.16	0.0118653
3725.8	0.00949934
3735.44	0.0119954
3745.08	0.0126211
3754.72	0.012832
3764.37	0.0150181
3774.01	0.0114633
3783.65	0.0109104
3793.29	0.0112797
3802.94	0.0126506
3812.58	0.00729915
3822.22	0.0146712
3831.86	0.0105457
3841.51	0.0120188
3851.15	0.0162119
3860.79	0.0164015
3870.43	0.0124547
3880.07	0.0114393
3889.72	0.0146012
3899.36	0.0133658
3909	0.0192323
3918.64	0.0150455
3928.29	0.0133327
3937.93	0.0139374
3947.57	0.0120574
3957.21	0.0154059
3966.86	0.014871
3976.5	0.0107167
3986.14	0.0126751
3995.78	0.0184796
