Measurement: Infrared, Infrared Data Processed
Mineral: Vayrynenite
Rruff sample: R050243
Ideal chemistry: Mn^2+^Be(PO_4_)OH
Locality: Viitaniemi pegmatite, Erajarvi, Orivesi, Finland
Source: Marcus Origlieri
Description: Pink massive with defined cleavage planes
Measured chemistry: (Mn^2+^_0.95_Fe^2+^_0.05_)_Σ=1_Be_1.00_(P_1.00_O_4_)((OH)_0.94_F_0.06_)_Σ=1_ ; Be not measured but estimated by difference and charge balance.
x	intensity
372.194	0
381.836	0.0697611
391.479	0.087669
401.121	0.0527806
410.763	0.0613359
420.406	0.0562059
430.048	0.0438364
439.69	0.056637
449.333	0.0726099
458.975	0.0994642
468.617	0.138829
478.26	0.0625375
487.902	0.0623076
497.544	0.0818167
507.187	0.112959
516.829	0.117025
526.471	0.0933953
536.114	0.118124
545.756	0.122058
555.398	0.0789071
565.041	0.0803268
574.683	0.10005
584.325	0.13664
593.968	0.108432
603.61	0.140085
613.252	0.122605
622.895	0.0833444
632.537	0.0947878
642.179	0.119463
651.822	0.125028
661.464	0.115767
671.106	0.0992015
680.749	0.0823245
690.391	0.0740456
700.033	0.071989
709.676	0.0740384
719.318	0.0894759
728.96	0.112712
738.603	0.138357
748.245	0.139303
757.887	0.101957
767.53	0.0631915
777.172	0.0501306
786.814	0.0597803
796.457	0.0785149
806.099	0.0585899
815.741	0.0323621
825.384	0.0276273
835.026	0.028722
844.668	0.0334338
854.311	0.040556
863.953	0.0504766
873.595	0.0642701
883.238	0.0814877
892.88	0.100043
902.522	0.101856
912.165	0.119006
921.807	0.128916
931.449	0.0950127
941.092	0.0914522
950.734	0.121032
960.376	0.159212
970.019	0.19458
979.661	0.224625
989.303	0.22045
998.946	0.186742
1008.59	0.153098
1018.23	0.152658
1027.87	0.206137
1037.52	0.215932
1047.16	0.230728
1056.8	0.20296
1066.44	0.170484
1076.08	0.174024
1085.73	0.144735
1095.37	0.114041
1105.01	0.0845553
1114.65	0.0589825
1124.3	0.0561029
1133.94	0.0656962
1143.58	0.0518829
1153.22	0.0380104
1162.87	0.0282549
1172.51	0.0286855
1182.15	0.0191848
1191.79	0.00979054
1201.43	0.00664964
1211.08	0.00475539
1220.72	0.00338196
1230.36	0.00235171
1240	0.00177395
1249.65	0.00137679
1259.29	0.0010741
1268.93	0.000700464
1278.57	0.000626305
1288.22	0.000702528
1297.86	0.000493947
1307.5	0.000283496
1317.14	0.00049795
1326.79	0.000230979
1336.43	0.000331859
1346.07	0.000259573
1355.71	0.000314352
1365.35	4.57033e-05
1375	0.00023217
1384.64	0.000359377
1394.28	0.000879363
1403.92	0.00133012
1413.57	0.0018724
1423.21	0.00216439
1432.85	0.0021668
1442.49	0.00241687
1452.13	0.00277156
1461.78	0.00284175
1471.42	0.00339335
1481.06	0.00330467
1490.7	0.00307283
1500.35	0.00280223
1509.99	0.00250743
1519.63	0.0021157
1529.27	0.00225486
1538.92	0.00209122
1548.56	0.00212292
1558.2	0.00208418
1567.84	0.00245686
1577.49	0.00280058
1587.13	0.00297602
1596.77	0.00345605
1606.41	0.00337178
1616.06	0.00324957
1625.7	0.00338659
1635.34	0.00349072
1644.98	0.00381636
1654.62	0.00350797
1664.27	0.00384328
1673.91	0.00358385
1683.55	0.00347602
1693.19	0.00305099
1702.84	0.00283391
1712.48	0.00268264
1722.12	0.00229352
1731.76	0.00231152
1741.4	0.00231833
1751.05	0.00322994
1760.69	0.00456017
1770.33	0.00452424
1779.97	0.00415938
1789.62	0.00370559
1799.26	0.0038322
1808.9	0.00302657
1818.54	0.00280479
1828.19	0.00278587
1837.83	0.00257427
1847.47	0.00256335
1857.11	0.00293153
1866.76	0.002972
1876.4	0.00305956
1886.04	0.00290295
1895.68	0.0031813
1905.33	0.0030923
1914.97	0.00254399
1924.61	0.00159677
1934.25	0.00207384
1943.89	0.00175756
1953.54	0.00131217
1963.18	0.00248929
1972.82	0.00283919
1982.46	0.00315702
1992.11	0.00425586
2001.75	0.00261977
2011.39	0.0034076
2021.03	0.00275235
2030.67	0.00641391
2040.32	0.00485497
2049.96	0.00420716
2059.6	0.00371637
2069.24	0.0030886
2078.89	0.00342408
2088.53	0.00272617
2098.17	0.00260549
2107.81	0.00281287
2117.46	0.00300274
2127.1	0.00251591
2136.74	0.00330489
2146.38	0.00201583
2156.03	0.00257907
2165.67	0.00540791
2175.31	0.00401118
2184.95	0.00588197
2194.59	0.00778105
2204.24	0.0048872
2213.88	0.00637452
2223.52	0.00618097
2233.16	0.00592461
2242.81	0.00559896
2252.45	0.00563838
2262.09	0.00511779
2271.73	0.00532676
2281.38	0.00607302
2291.02	0.00632352
2300.66	0.00592434
2310.3	0.0054362
2319.95	0.00609453
2329.59	0.00544104
2339.23	0.00519843
2348.87	0.00444226
2358.51	0.00455141
2368.16	0.00446707
2377.8	0.00372324
2387.44	0.00381105
2397.08	0.0036981
2406.73	0.00418983
2416.37	0.0044935
2426.01	0.00415202
2435.65	0.0044739
2445.3	0.00432466
2454.94	0.00461419
2464.58	0.00465438
2474.22	0.00444939
2483.86	0.00474815
2493.51	0.00457965
2503.15	0.00441156
2512.79	0.00459006
2522.43	0.00452636
2532.08	0.00488305
2541.72	0.00487154
2551.36	0.00467252
2561	0.00519536
2570.65	0.00548734
2580.29	0.0054618
2589.93	0.00560012
2599.57	0.00522106
2609.22	0.00593278
2618.86	0.00596607
2628.5	0.00581202
2638.14	0.00569034
2647.78	0.00589704
2657.43	0.00563741
2667.07	0.00473385
2676.71	0.00482946
2686.35	0.00520526
2696	0.00505674
2705.64	0.00531204
2715.28	0.00509959
2724.92	0.00542345
2734.57	0.00564541
2744.21	0.00575956
2753.85	0.00585108
2763.49	0.0057785
2773.14	0.00605191
2782.78	0.00595708
2792.42	0.00622421
2802.06	0.00688366
2811.7	0.0068021
2821.35	0.00654295
2830.99	0.0069915
2840.63	0.00638334
2850.27	0.00336237
2859.92	0.00449389
2869.56	0.00547593
2879.2	0.00639146
2888.84	0.00688848
2898.49	0.00596481
2908.13	0.0053584
2917.77	0.0026407
2927.41	0.00210609
2937.05	0.00482687
2946.7	0.00704057
2956.34	0.0072533
2965.98	0.00942898
2975.62	0.0106483
2985.27	0.011225
2994.91	0.0117046
3004.55	0.0127796
3014.19	0.0116005
3023.84	0.0145345
3033.48	0.0153097
3043.12	0.0170498
3052.76	0.0175651
3062.41	0.0194974
3072.05	0.0204777
3081.69	0.0213752
3091.33	0.0223935
3100.97	0.0242316
3110.62	0.0260889
3120.26	0.0273397
3129.9	0.0288861
3139.54	0.0312333
3149.19	0.0344243
3158.83	0.039129
3168.47	0.0435905
3178.11	0.0518798
3187.76	0.0630037
3197.4	0.0772556
3207.04	0.0891771
3216.68	0.0898421
3226.32	0.0768687
3235.97	0.0575654
3245.61	0.0393336
3255.25	0.0263309
3264.89	0.0185554
3274.54	0.0137144
3284.18	0.01213
3293.82	0.0110808
3303.46	0.0108832
3313.11	0.0101305
3322.75	0.00926253
3332.39	0.00919788
3342.03	0.00676982
3351.68	0.0073583
3361.32	0.00685932
3370.96	0.0057213
3380.6	0.00575322
3390.24	0.00486292
3399.89	0.00371855
3409.53	0.00411505
3419.17	0.00293743
3428.81	0.00286881
3438.46	0.00155282
3448.1	0.000927204
3457.74	0.00117886
3467.38	0.00146782
3477.03	0.00139885
3486.67	0.00075145
3496.31	0.000456783
3505.95	8.49085e-05
3515.59	0.000156723
3525.24	0.000167146
3534.88	0.00021428
3544.52	0.000927592
3554.16	0.000236774
3563.81	0.00129021
3573.45	-0.000294024
3583.09	0.000287092
3592.73	-0.000121116
3602.38	-0.00037616
3612.02	-0.00120259
3621.66	-0.00119783
3631.3	-0.000402078
3640.95	-0.00122552
3650.59	-0.000523778
3660.23	-0.00193275
3669.87	0.00028239
3679.51	-0.000282717
3689.16	-0.000987432
3698.8	0.000608236
3708.44	-0.000139006
3718.08	0.0002579
3727.73	0.000391829
3737.37	-8.23148e-05
3747.01	-0.000778992
3756.65	-0.000314515
3766.3	0.000231617
3775.94	0.000333945
3785.58	0.000120929
3795.22	0.000642233
3804.86	-3.90259e-05
3814.51	-0.000606097
3824.15	0.000448998
3833.79	-0.000142588
3843.43	-0.000168482
3853.08	-0.000440965
3862.72	-0.000572757
3872.36	7.3485e-05
3882	-0.000524145
3891.65	-0.000254871
3901.29	-0.000611431
3910.93	-0.000191514
3920.57	-0.000860916
3930.22	-0.000582908
3939.86	-0.000601824
3949.5	0.000299862
3959.14	-0.00154432
3968.78	7.79455e-05
3978.43	-0.000142492
3988.07	-0.000964178
3997.71	-0.000353796
