Measurement: Infrared, Infrared Data Processed
Mineral: Vayrynenite
Rruff sample: R050243
Ideal chemistry: Mn^2+^Be(PO_4_)OH
Locality: Viitaniemi pegmatite, Erajarvi, Orivesi, Finland
Source: Marcus Origlieri
Description: Pink massive with defined cleavage planes
Measured chemistry: (Mn^2+^_0.95_Fe^2+^_0.05_)_Σ=1_Be_1.00_(P_1.00_O_4_)((OH)_0.94_F_0.06_)_Σ=1_ ; Be not measured but estimated by difference and charge balance.
x	intensity
50.1401	0.00703675
52.0686	0.00921705
53.9971	0.0138256
55.9255	0.00746291
57.854	0.00979169
59.7825	0.00930212
61.7109	0.00771355
63.6394	0.00729356
65.5679	0.00743627
67.4963	0.00813028
69.4248	0.00924858
71.3533	0.0115515
73.2817	0.0129278
75.2102	0.0116433
77.1387	0.0115178
79.0671	0.012123
80.9956	0.0144681
82.9241	0.0143849
84.8525	0.0145602
86.781	0.0153046
88.7095	0.0165428
90.6379	0.0175085
92.5664	0.016821
94.4948	0.0154652
96.4233	0.0161306
98.3518	0.0173448
100.28	0.0186184
102.209	0.0192275
104.137	0.0206192
106.066	0.0214507
107.994	0.0212011
109.923	0.0210173
111.851	0.0215288
113.779	0.0225608
115.708	0.0233541
117.636	0.0234984
119.565	0.0242714
121.493	0.0253051
123.422	0.0264896
125.35	0.0275253
127.279	0.0281596
129.207	0.0295878
131.136	0.0310639
133.064	0.0323974
134.993	0.033475
136.921	0.0351412
138.85	0.0362343
140.778	0.0333108
142.707	0.0295651
144.635	0.0285035
146.563	0.0300207
148.492	0.0323121
150.42	0.0345693
152.349	0.0365306
154.277	0.0368332
156.206	0.0337661
158.134	0.0305378
160.063	0.0306257
161.991	0.0320973
163.92	0.0337227
165.848	0.0356487
167.777	0.0372645
169.705	0.0388815
171.633	0.040076
173.562	0.0413656
175.49	0.0425177
177.419	0.0433189
179.347	0.0437597
181.276	0.0441204
183.204	0.0444122
185.133	0.0439409
187.061	0.0419723
188.99	0.0384495
190.918	0.0334295
192.847	0.0279535
194.775	0.0251166
196.704	0.0265812
198.632	0.0310285
200.56	0.0359402
202.489	0.0406468
204.417	0.0440542
206.346	0.0461458
208.274	0.0474023
210.203	0.0466761
212.131	0.04464
214.06	0.0423403
215.988	0.0400905
217.917	0.0382545
219.845	0.03711
221.774	0.0369183
223.702	0.0376498
225.631	0.0381129
227.559	0.0383649
229.488	0.0386893
231.416	0.0387291
233.344	0.038716
235.273	0.0386527
237.201	0.0386148
239.13	0.0383844
241.058	0.0376034
242.987	0.0370687
244.915	0.0367074
246.844	0.036428
248.772	0.0363413
250.701	0.0360569
252.629	0.0361946
254.558	0.0373417
256.486	0.0386802
258.414	0.0396886
260.343	0.0396892
262.271	0.0378484
264.2	0.0343181
266.128	0.0310017
268.057	0.0297639
269.985	0.0303504
271.914	0.0319016
273.842	0.0336744
275.771	0.0344536
277.699	0.0336622
279.628	0.0310666
281.556	0.0281354
283.485	0.0258244
285.413	0.0250411
287.341	0.0253749
289.27	0.0261364
291.198	0.0262749
293.127	0.0264155
295.055	0.0271127
296.984	0.0281977
298.912	0.0298467
300.841	0.0316233
302.769	0.0331487
304.698	0.0344193
306.626	0.036228
308.555	0.0380562
310.483	0.0397687
312.411	0.0417167
314.34	0.0433245
316.269	0.0448319
318.197	0.0463961
320.125	0.0478535
322.054	0.0489607
323.982	0.0494436
325.911	0.0492697
327.839	0.048777
329.768	0.0479926
331.696	0.0470263
333.625	0.0458712
335.553	0.044395
337.482	0.0424046
339.41	0.039926
341.339	0.0374993
343.267	0.0357218
345.195	0.0343151
347.124	0.0333176
349.052	0.0332938
350.981	0.0337879
352.909	0.0341216
354.838	0.0339655
356.766	0.033477
358.695	0.0330916
360.623	0.0331224
362.552	0.0333236
364.48	0.0339204
366.409	0.034907
368.337	0.0356646
370.265	0.0362188
372.194	0.0372234
374.122	0.0385584
376.051	0.0395886
377.979	0.0406314
379.908	0.0418408
381.836	0.0430572
383.765	0.0444526
385.693	0.0459967
387.622	0.0472941
389.55	0.0479467
391.479	0.0473643
393.407	0.045799
395.336	0.0437788
397.264	0.0416599
399.192	0.0397541
401.121	0.0383247
403.049	0.037671
404.978	0.0378472
406.906	0.0384697
408.835	0.0398487
410.763	0.0417722
412.692	0.0440094
414.62	0.0463307
416.549	0.0470832
418.477	0.0445371
420.406	0.040471
422.334	0.037651
424.262	0.0369588
426.191	0.0371664
428.12	0.0376287
430.048	0.0385813
431.976	0.0396859
433.905	0.040668
435.833	0.0416946
437.762	0.0426918
439.69	0.0436177
441.619	0.0445565
443.547	0.0457488
445.476	0.0468074
447.404	0.0476181
449.333	0.0485539
451.261	0.0501164
453.19	0.0517417
455.118	0.0529445
457.046	0.0541403
458.975	0.0557121
460.903	0.0572403
462.832	0.0593593
464.76	0.061829
466.689	0.0641532
468.617	0.0657457
470.546	0.0654324
472.474	0.0615194
474.403	0.0551794
476.331	0.049146
478.26	0.0455645
480.188	0.0444462
482.116	0.0444378
484.045	0.0450415
485.974	0.0460697
487.902	0.0474523
489.83	0.0490265
491.759	0.0505531
493.687	0.0520892
495.616	0.0535569
497.544	0.0551467
499.473	0.0567085
501.401	0.0584698
503.33	0.0599524
505.258	0.0614716
507.187	0.0633711
509.115	0.0651647
511.043	0.0666806
512.972	0.0674585
514.9	0.0660283
516.829	0.0627793
518.757	0.0596871
520.686	0.0580312
522.614	0.0575612
524.543	0.0574786
526.471	0.0572346
528.4	0.0577285
530.328	0.0588809
532.257	0.0604965
534.185	0.0630143
536.114	0.065563
538.042	0.0673948
539.971	0.0685504
541.899	0.0686235
543.827	0.0682773
545.756	0.0664965
547.684	0.0638917
549.613	0.0611886
551.541	0.0582402
553.47	0.0553919
555.398	0.053575
557.327	0.0526924
559.255	0.0526827
561.184	0.0531007
563.112	0.0540022
565.041	0.0554353
566.969	0.0573626
568.898	0.0585596
570.826	0.0590728
572.755	0.060514
574.683	0.0628278
576.611	0.0649409
578.54	0.0667334
580.468	0.0686546
582.397	0.0707486
584.325	0.0725815
586.254	0.0729256
588.182	0.0708845
590.111	0.0675953
592.039	0.0649545
593.968	0.0648288
595.896	0.0671353
597.824	0.0701064
599.753	0.0724509
601.682	0.0731643
603.61	0.0725474
605.538	0.0717901
607.467	0.0720167
609.395	0.0717332
611.324	0.0699812
613.252	0.0681086
615.181	0.065973
617.109	0.0635593
619.038	0.0606415
620.966	0.0580193
622.894	0.056699
624.823	0.0566392
626.751	0.0581055
628.68	0.0603818
630.608	0.0631448
632.537	0.0662706
634.465	0.0684943
636.394	0.0703079
638.322	0.0720728
640.251	0.0737664
642.179	0.0751609
644.108	0.0763192
646.036	0.0769563
647.965	0.0771827
649.893	0.0774318
651.822	0.0777413
653.75	0.0776894
655.678	0.0772024
657.607	0.0768279
659.535	0.0767317
661.464	0.0759697
663.392	0.0749194
665.321	0.0744933
667.249	0.0740208
669.178	0.0730434
671.106	0.0719011
673.035	0.0709441
674.963	0.0698656
676.892	0.0689883
678.82	0.0686946
680.749	0.0680082
682.677	0.0669425
684.606	0.065778
686.534	0.0648626
688.462	0.0643293
690.391	0.0645717
692.319	0.0650267
694.248	0.065342
696.176	0.0657031
698.105	0.0660988
700.033	0.0649065
