Measurement: Infrared, Infrared Data Processed
Mineral: Vermiculite
Rruff sample: R050490
Ideal chemistry: Mg_0.7_(Mg,Fe^3+^,Al)_6_(Si,Al)_8_O_20_(OH)_4_8H_2_O
Locality: near Tonopah, Nevada, USA
Source: California Institute of Technology
Description: Dark green micaceous fragment
Measured chemistry: (Mg_2.26_Fe^3+^_0.25_Al_0.25_Ca_0.24_)_Σ=3_(Si_3.50_Al_0.50_)_Σ=4_O_10_((OH)_1.90_F_0.10_)_Σ=2_·4H_2_O
x	intensity
395.336	0.0425026
404.978	0.0491538
414.62	0.0524583
424.263	0.057625
433.905	0.0630047
443.547	0.0669645
453.19	0.0690038
462.832	0.066061
472.474	0.0551488
482.117	0.044103
491.759	0.0412044
501.401	0.0342252
511.044	0.0300728
520.686	0.028918
530.328	0.0289806
539.971	0.0287646
549.613	0.0308057
559.255	0.033459
568.898	0.0371482
578.54	0.0405103
588.182	0.0445556
597.825	0.0488912
607.467	0.0527114
617.109	0.0539943
626.752	0.051534
636.394	0.0542068
646.036	0.0572501
655.679	0.0574195
665.321	0.0562474
674.963	0.0537916
684.606	0.0507962
694.248	0.0477105
703.89	0.0451164
713.533	0.0430186
723.175	0.0407664
732.817	0.0384823
742.46	0.0364986
752.102	0.0343753
761.744	0.0321799
771.387	0.0304681
781.029	0.0284741
790.671	0.0269622
800.314	0.0256615
809.956	0.0248633
819.598	0.0239747
829.241	0.0229179
838.883	0.0209493
848.525	0.0185537
858.168	0.0167685
867.81	0.0141312
877.452	0.0124947
887.095	0.0109374
896.737	0.010721
906.379	0.0113257
916.022	0.0126858
925.664	0.0143439
935.306	0.0171415
944.949	0.0218785
954.591	0.0287932
964.233	0.0358919
973.876	0.0420891
983.518	0.0451856
993.16	0.0461213
1002.8	0.0439653
1012.45	0.0375465
1022.09	0.0284925
1031.73	0.0220483
1041.37	0.0183079
1051.01	0.0153136
1060.66	0.0136767
1070.3	0.0123276
1079.94	0.0107842
1089.58	0.00911743
1099.23	0.00744655
1108.87	0.0058515
1118.51	0.00482537
1128.15	0.00382475
1137.8	0.00323192
1147.44	0.00260941
1157.08	0.00239064
1166.72	0.00204366
1176.37	0.00177781
1186.01	0.00140523
1195.65	0.00130404
1205.29	0.00081805
1214.93	0.000676035
1224.58	0.000338536
1234.22	6.53877e-05
1243.86	0.000276649
1253.5	2.02681e-05
1263.15	-0.000152188
1272.79	-0.000204222
1282.43	-6.94335e-05
1292.07	-0.000266764
1301.71	-0.000250754
1311.36	-0.00029558
1321	-0.000174388
1330.64	-0.000399793
1340.28	-0.000481065
1349.93	-0.000378602
1359.57	-0.000334442
1369.21	-0.000300264
1378.85	-0.00012627
1388.5	0.000112634
1398.14	-0.000105831
1407.78	9.39328e-05
1417.42	0.000549352
1427.07	0.000449569
1436.71	0.000618863
1446.35	0.000395658
1455.99	0.000490197
1465.63	0.00017489
1475.28	-0.000135012
1484.92	-0.00026797
1494.56	-0.000433935
1504.2	-0.000509252
1513.85	-0.000636605
1523.49	-0.000783613
1533.13	-0.000897746
1542.77	-0.000585332
1552.42	-0.000585746
1562.06	-0.000694547
1571.7	-0.000622445
1581.34	-0.000413107
1590.98	-0.000464655
1600.63	-0.000372255
1610.27	-7.73875e-05
1619.91	0.000197168
1629.55	0.000657697
1639.2	0.000716477
1648.84	0.000908049
1658.48	0.000604129
1668.12	0.000574323
1677.77	-6.28353e-05
1687.41	-0.00038102
1697.05	-0.000618878
1706.69	-0.000961052
1716.34	-0.000753024
1725.98	-0.00119104
1735.62	-0.00112162
1745.26	-0.00119685
1754.9	-0.00153512
1764.55	-0.00147272
1774.19	-0.00197773
1783.83	-0.00171706
1793.47	-0.00143492
1803.12	-0.00171689
1812.76	-0.00170041
1822.4	-0.00165558
1832.04	-0.00150214
1841.69	-0.00186559
1851.33	-0.00197393
1860.97	-0.00210105
1870.61	-0.0018377
1880.26	-0.00164975
1889.9	-0.00221213
1899.54	-0.00208075
1909.18	-0.00236227
1918.82	-0.00217426
1928.47	-0.00191192
1938.11	-0.0022343
1947.75	-0.00298518
1957.39	-0.00195578
1967.04	-0.002774
1976.68	-0.00316334
1986.32	-0.00224466
1995.96	-0.00316359
2005.61	-0.00361374
2015.25	-0.0027101
2024.89	-0.00312938
2034.53	-0.00372031
2044.17	-0.0038385
2053.82	-0.00209518
2063.46	-0.00274441
2073.1	-0.00348906
2082.74	-0.00318976
2092.39	-0.00288147
2102.03	-0.00245049
2111.67	-0.00339597
2121.31	-0.00213986
2130.96	-0.00187846
2140.6	-0.00117402
2150.24	-0.00295305
2159.88	-0.0025885
2169.53	-0.00246135
2179.17	-0.00252733
2188.81	-0.00311571
2198.45	-0.00319677
2208.09	-0.00356642
2217.74	-0.00349908
2227.38	-0.00326902
2237.02	-0.00236641
2246.66	-0.00319334
2256.31	-0.00382304
2265.95	-0.00351337
2275.59	-0.00330423
2285.23	-0.00398276
2294.88	-0.00303543
2304.52	-0.00330466
2314.16	-0.00320151
2323.8	-0.00329368
2333.45	-0.00234943
2343.09	-0.00209515
2352.73	-0.00218136
2362.37	-0.00110732
2372.01	-0.00201185
2381.66	-0.00293238
2391.3	-0.00259763
2400.94	-0.00305209
2410.58	-0.00291353
2420.23	-0.00310018
2429.87	-0.00304347
2439.51	-0.00271193
2449.15	-0.0031922
2458.8	-0.00298928
2468.44	-0.00226069
2478.08	-0.00271116
2487.72	-0.00294124
2497.36	-0.00276317
2507.01	-0.00312949
2516.65	-0.00283386
2526.29	-0.00292397
2535.93	-0.00372519
2545.58	-0.00330175
2555.22	-0.00391992
2564.86	-0.00411585
2574.5	-0.00345403
2584.14	-0.00429508
2593.79	-0.00433046
2603.43	-0.00392226
2613.07	-0.00413884
2622.72	-0.00427456
2632.36	-0.00416115
2642	-0.00422829
2651.64	-0.00408362
2661.28	-0.00393205
2670.93	-0.00367798
2680.57	-0.00338214
2690.21	-0.00364021
2699.85	-0.0033601
2709.5	-0.00341042
2719.14	-0.00359781
2728.78	-0.00319441
2738.42	-0.00333709
2748.07	-0.00322989
2757.71	-0.00349206
2767.35	-0.00346679
2776.99	-0.00319855
2786.63	-0.00295086
2796.28	-0.00291301
2805.92	-0.00292945
2815.56	-0.00302867
2825.2	-0.00259046
2834.85	-0.00230082
2844.49	-0.00292729
2854.13	-0.00260291
2863.77	-0.00219026
2873.41	-0.00226244
2883.06	-0.00280713
2892.7	-0.00287332
2902.34	-0.00236496
2911.99	-0.00270838
2921.63	-0.00176714
2931.27	-0.00191989
2940.91	-0.00222408
2950.55	-0.00148798
2960.2	-0.00194419
2969.84	-0.00283792
2979.48	-0.0028488
2989.12	-0.00258908
2998.77	-0.00275398
3008.41	-0.00256864
3018.05	-0.00175842
3027.69	-0.00240595
3037.34	-0.00170047
3046.98	-0.00252613
3056.62	-0.00254998
3066.26	-0.00193708
3075.9	-0.00247661
3085.55	-0.00242037
3095.19	-0.0013109
3104.83	-0.0020345
3114.47	-0.00197403
3124.12	-0.00127076
3133.76	-0.00123275
3143.4	-0.00139145
3153.04	-0.00173265
3162.68	-0.000687793
3172.33	-0.00148356
3181.97	-0.000786454
3191.61	-0.00135953
3201.26	-0.000908091
3210.9	-0.000256249
3220.54	-0.000173554
3230.18	-0.000603644
3239.82	-0.000336173
3249.47	7.26022e-05
3259.11	-0.000147979
3268.75	-0.000634764
3278.39	-0.000707287
3288.04	-0.000118263
3297.68	6.13811e-05
3307.32	1.77581e-05
3316.96	-0.000232938
3326.61	0.000542471
3336.25	-0.000265724
3345.89	0.000378012
3355.53	0.000394817
3365.17	7.64851e-05
3374.82	0.00136018
3384.46	0.000488405
3394.1	0.00109688
3403.74	0.000796918
3413.39	0.000481157
3423.03	-0.00059113
3432.67	1.69868e-05
3442.31	0.000646238
3451.95	0.000628408
3461.6	0.000264674
3471.24	-0.000641672
3480.88	-0.00122872
3490.53	-0.00102186
3500.17	-0.000924038
3509.81	-0.00131851
3519.45	-0.00121676
3529.09	-0.000666011
3538.74	-0.00186886
3548.38	-0.00169552
3558.02	-0.00147773
3567.66	-0.00254172
3577.31	-0.00226877
3586.95	-0.00254469
3596.59	-0.00223962
3606.23	-0.00358874
3615.88	-0.00387738
3625.52	-0.0047568
3635.16	-0.00595034
3644.8	-0.00619682
3654.44	-0.00705131
3664.09	-0.00687828
3673.73	-0.00638224
3683.37	-0.0082884
3693.01	-0.00900899
3702.66	-0.00931217
3712.3	-0.00977033
3721.94	-0.00893272
3731.58	-0.00896638
3741.22	-0.00929235
3750.87	-0.00877834
3760.51	-0.0102923
3770.15	-0.00947635
3779.8	-0.00968963
3789.44	-0.00979201
3799.08	-0.00947969
3808.72	-0.00967203
3818.36	-0.0101886
3828.01	-0.00946908
3837.65	-0.00874745
3847.29	-0.0104267
3856.93	-0.00904439
3866.58	-0.0112331
3876.22	-0.00979155
3885.86	-0.0100943
3895.5	-0.00972079
3905.14	-0.00988378
3914.79	-0.0105782
3924.43	-0.00983328
3934.07	-0.0106337
3943.71	-0.01061
3953.36	-0.010426
3963	-0.0106304
3972.64	-0.0107437
3982.28	-0.0105392
3991.93	-0.0102208
