Measurement: Infrared, Infrared Data Processed
Mineral: Vesuvianite
Rruff sample: R050489
Ideal chemistry: (Ca,Na)_19_(Al,Mg,Fe^3+^)_13_(SiO_4_)_10_(Si_2_O_7_)_4_(OH,F,O)_10_
Locality: Crestmore Quarry, Riverside County, California, USA
Source: California Institute of Technology
Description: Green prismatic crystal
Measured chemistry: Ca_19.00_(Al_9.56_Mg_2.36_Fe^2+^_0.86_Ti_0.22_)_Σ=13_Si_18.00_O_68_((OH)_9.59_F_0.41_)_Σ=10_ ; B not measured
x	intensity
372.194	0
381.836	0.241959
391.479	0.236165
401.121	0.251674
410.763	0.247936
420.406	0.253194
430.048	0.251463
439.69	0.228928
449.333	0.206593
458.975	0.202508
468.617	0.202231
478.26	0.199357
487.902	0.182534
497.544	0.15903
507.187	0.136378
516.829	0.126779
526.471	0.122545
536.114	0.114759
545.756	0.112686
555.398	0.117066
565.041	0.126698
574.683	0.120537
584.325	0.109042
593.968	0.114975
603.61	0.118447
613.252	0.109686
622.895	0.100186
632.537	0.0900986
642.179	0.0815247
651.822	0.0720965
661.464	0.066481
671.106	0.0601855
680.749	0.0590799
690.391	0.0564085
700.033	0.0532123
709.676	0.0535921
719.318	0.0547138
728.96	0.0635
738.603	0.0746186
748.245	0.0808685
757.887	0.088636
767.53	0.106116
777.172	0.136267
786.814	0.161993
796.457	0.169555
806.099	0.166079
815.741	0.168058
825.384	0.186213
835.026	0.210865
844.668	0.224485
854.311	0.227503
863.953	0.228158
873.595	0.230755
883.238	0.220523
892.88	0.217408
902.522	0.220169
912.165	0.229148
921.807	0.214958
931.449	0.200822
941.092	0.204606
950.734	0.213238
960.376	0.211762
970.019	0.198061
979.661	0.179115
989.303	0.169171
998.946	0.180583
1008.59	0.181965
1018.23	0.15723
1027.87	0.116471
1037.52	0.0813359
1047.16	0.0550673
1056.8	0.040458
1066.44	0.0346088
1076.08	0.0314465
1085.73	0.028816
1095.37	0.025954
1105.01	0.0221845
1114.65	0.0184891
1124.3	0.0153412
1133.94	0.012864
1143.58	0.0106466
1153.22	0.00907723
1162.87	0.00786758
1172.51	0.00669107
1182.15	0.00554205
1191.79	0.00479868
1201.43	0.00402712
1211.08	0.00367828
1220.72	0.00337978
1230.36	0.00314949
1240	0.00307822
1249.65	0.00294594
1259.29	0.00295366
1268.93	0.00297096
1278.57	0.00336107
1288.22	0.00349492
1297.86	0.00344158
1307.5	0.00339779
1317.14	0.00381029
1326.79	0.00404347
1336.43	0.00448253
1346.07	0.00526474
1355.71	0.00672831
1365.35	0.00808252
1375	0.0103892
1384.64	0.0135451
1394.28	0.0189273
1403.92	0.0252452
1413.57	0.0332492
1423.21	0.0391778
1432.85	0.0425171
1442.49	0.044263
1452.13	0.0440332
1461.78	0.0430892
1471.42	0.0396891
1481.06	0.0356653
1490.7	0.0314414
1500.35	0.0277284
1509.99	0.0241002
1519.63	0.0205242
1529.27	0.0181999
1538.92	0.0162759
1548.56	0.0149768
1558.2	0.0141188
1567.84	0.0128356
1577.49	0.011359
1587.13	0.0102691
1596.77	0.00972206
1606.41	0.00898662
1616.06	0.00853714
1625.7	0.00850038
1635.34	0.00829667
1644.98	0.00821239
1654.62	0.00741577
1664.27	0.00697323
1673.91	0.00619556
1683.55	0.00569207
1693.19	0.00510546
1702.84	0.00459236
1712.48	0.00419655
1722.12	0.00363829
1731.76	0.00299062
1741.4	0.00244579
1751.05	0.00252918
1760.69	0.00308127
1770.33	0.0033601
1779.97	0.0035716
1789.62	0.00379423
1799.26	0.00410943
1808.9	0.00316081
1818.54	0.00341601
1828.19	0.00303928
1837.83	0.00340389
1847.47	0.00317339
1857.11	0.00360454
1866.76	0.00291315
1876.4	0.00279957
1886.04	0.00269261
1895.68	0.00299169
1905.33	0.00285969
1914.97	0.00217107
1924.61	0.00198431
1934.25	0.00234132
1943.89	0.00226695
1953.54	0.00129195
1963.18	0.00144816
1972.82	0.00299383
1982.46	0.0023529
1992.11	0.00300775
2001.75	0.00207423
2011.39	0.00117663
2021.03	0.00119198
2030.67	0.00338072
2040.32	0.00378389
2049.96	0.00380967
2059.6	0.00370852
2069.24	0.0049476
2078.89	0.00565166
2088.53	0.00485867
2098.17	0.00547087
2107.81	0.00517525
2117.46	0.00579542
2127.1	0.0058036
2136.74	0.00663437
2146.38	0.00618889
2156.03	0.00768078
2165.67	0.00935913
2175.31	0.0084129
2184.95	0.0085048
2194.59	0.00801081
2204.24	0.00667223
2213.88	0.00759911
2223.52	0.00811952
2233.16	0.00756878
2242.81	0.00824842
2252.45	0.00734425
2262.09	0.00700133
2271.73	0.00807997
2281.38	0.00775869
2291.02	0.00773724
2300.66	0.00763968
2310.3	0.00749517
2319.95	0.00801122
2329.59	0.0081639
2339.23	0.00820944
2348.87	0.0074376
2358.51	0.00847025
2368.16	0.00869081
2377.8	0.00741193
2387.44	0.00689556
2397.08	0.00742248
2406.73	0.00785516
2416.37	0.00813861
2426.01	0.00798972
2435.65	0.00770331
2445.3	0.0082843
2454.94	0.00788046
2464.58	0.0083696
2474.22	0.00843525
2483.86	0.00792756
2493.51	0.00850498
2503.15	0.00883652
2512.79	0.009053
2522.43	0.00893652
2532.08	0.00881365
2541.72	0.00933448
2551.36	0.00863035
2561	0.00949686
2570.65	0.00937941
2580.29	0.00959087
2589.93	0.00997197
2599.57	0.00944426
2609.22	0.00998368
2618.86	0.0103156
2628.5	0.0100032
2638.14	0.00973865
2647.78	0.0100815
2657.43	0.00985558
2667.07	0.00939577
2676.71	0.0098391
2686.35	0.00988725
2696	0.0100818
2705.64	0.0101878
2715.28	0.010581
2724.92	0.0108312
2734.57	0.0107199
2744.21	0.0112026
2753.85	0.0111711
2763.49	0.0111031
2773.14	0.0112551
2782.78	0.011551
2792.42	0.0114492
2802.06	0.0119249
2811.7	0.0122842
2821.35	0.0119272
2830.99	0.0122612
2840.63	0.0118144
2850.27	0.00961296
2859.92	0.0107692
2869.56	0.0113993
2879.2	0.0124013
2888.84	0.0123713
2898.49	0.0114139
2908.13	0.0115667
2917.77	0.00953164
2927.41	0.00890206
2937.05	0.0110298
2946.7	0.012777
2956.34	0.0130222
2965.98	0.0148293
2975.62	0.0152389
2985.27	0.0157251
2994.91	0.0156273
3004.55	0.0162492
3014.19	0.0152829
3023.84	0.0167758
3033.48	0.0168473
3043.12	0.0185338
3052.76	0.0181651
3062.41	0.0189296
3072.05	0.0195469
3081.69	0.0194177
3091.33	0.0199455
3100.97	0.0210262
3110.62	0.0218029
3120.26	0.0217224
3129.9	0.0230023
3139.54	0.0234241
3149.19	0.0232943
3158.83	0.0240086
3168.47	0.0239739
3178.11	0.0247836
3187.76	0.0242529
3197.4	0.0251491
3207.04	0.0243699
3216.68	0.024421
3226.32	0.0241203
3235.97	0.0241005
3245.61	0.0237963
3255.25	0.0245987
3264.89	0.0241674
3274.54	0.0240679
3284.18	0.0240858
3293.82	0.0236376
3303.46	0.023546
3313.11	0.0234257
3322.75	0.0238167
3332.39	0.0234409
3342.03	0.0226451
3351.68	0.0238207
3361.32	0.024249
3370.96	0.023754
3380.6	0.0245572
3390.24	0.0240079
3399.89	0.0244812
3409.53	0.0251407
3419.17	0.0238786
3428.81	0.0233533
3438.46	0.0238471
3448.1	0.0233585
3457.74	0.0230873
3467.38	0.0241458
3477.03	0.0237703
3486.67	0.0231201
3496.31	0.0239864
3505.95	0.0227132
3515.59	0.0227101
3525.24	0.0223554
3534.88	0.0223378
3544.52	0.0220399
3554.16	0.0218644
3563.81	0.0227677
3573.45	0.0200252
3583.09	0.0201876
3592.73	0.0178277
3602.38	0.0168849
3612.02	0.0155842
3621.66	0.0161065
3631.3	0.016799
3640.95	0.0163273
3650.59	0.0148775
3660.23	0.0134445
3669.87	0.0143936
3679.51	0.0138795
3689.16	0.0137612
3698.8	0.0118485
3708.44	0.00831284
3718.08	0.0073778
3727.73	0.00726669
3737.37	0.00588123
3747.01	0.00672357
3756.65	0.00648403
3766.3	0.00655641
3775.94	0.00773339
3785.58	0.00760267
3795.22	0.00691384
3804.86	0.00664304
3814.51	0.00606204
3824.15	0.00630338
3833.79	0.00631585
3843.43	0.00686515
3853.08	0.00592994
3862.72	0.00609895
3872.36	0.00656085
3882	0.00604581
3891.65	0.00586224
3901.29	0.00635981
3910.93	0.00682543
3920.57	0.00574148
3930.22	0.00540159
3939.86	0.00650115
3949.5	0.00656744
3959.14	0.00517233
3968.78	0.00742913
3978.43	0.0061867
3988.07	0.00546738
3997.71	0.00665242
