Measurement: Infrared, Infrared Data Processed
Mineral: Vesuvianite
Rruff sample: R050233
Ideal chemistry: (Ca,Na)_19_(Al,Mg,Fe^3+^)_13_(SiO_4_)_10_(Si_2_O_7_)_4_(OH,F,O)_10_
Locality: Ludwig, Nevada, USA
Source: Marcus Origlieri
Description: Pale green euhedral single crystal
Measured chemistry: Ca_19.00_(Al_10.04_Mg_2.54_Fe^2+^_0.42_)_Σ=13_(Si_17.96_Al_0.04_)_Σ=18_O_68_((OH)_9.66_F_0.34_)_Σ=10_ ; Boron not analyzed.
x	intensity
50.1401	0.0386784
52.0686	0.0205039
53.9971	0.015337
55.9255	0.0148083
57.854	0.0210928
59.7825	0.0220202
61.7109	0.0243256
63.6394	0.0253842
65.5679	0.0245887
67.4963	0.0254758
69.4248	0.0278546
71.3533	0.0268106
73.2817	0.0269806
75.2102	0.0301306
77.1387	0.0325615
79.0671	0.0359888
80.9956	0.0381226
82.9241	0.0373707
84.8525	0.0375972
86.781	0.0392221
88.7095	0.0411336
90.6379	0.0423766
92.5664	0.0436793
94.4948	0.0440297
96.4233	0.0451989
98.3518	0.0458339
100.28	0.0463135
102.209	0.0462394
104.137	0.0466427
106.066	0.0473691
107.994	0.0485711
109.923	0.0485358
111.851	0.0503303
113.779	0.0516097
115.708	0.0519816
117.636	0.0516637
119.565	0.0518962
121.493	0.0525359
123.422	0.0528823
125.35	0.0530868
127.279	0.0545575
129.207	0.0560172
131.136	0.0580726
133.064	0.0586103
134.993	0.0588467
136.921	0.0592679
138.85	0.0606573
140.778	0.060904
142.707	0.0609122
144.635	0.0604961
146.563	0.0618921
148.492	0.063134
150.42	0.0629702
152.349	0.0628471
154.277	0.0634837
156.206	0.0643555
158.134	0.0651072
160.063	0.0649208
161.991	0.0657357
163.92	0.0666333
165.848	0.0678226
167.777	0.0687646
169.705	0.0699905
171.633	0.0706569
173.562	0.0710945
175.49	0.0715416
177.419	0.0727012
179.347	0.0731452
181.276	0.0731258
183.204	0.0725426
185.133	0.0711621
187.061	0.0688887
188.99	0.0662032
190.918	0.0645861
192.847	0.0648741
194.775	0.0656484
196.704	0.0669306
198.632	0.0685623
200.56	0.0702367
202.489	0.0718057
204.417	0.0730451
206.346	0.0742175
208.274	0.0756036
210.203	0.0765218
212.131	0.0771515
214.06	0.077742
215.988	0.078685
217.917	0.0794446
219.845	0.0806543
221.774	0.0819197
223.702	0.0830811
225.631	0.0849208
227.559	0.0861321
229.488	0.0850245
231.416	0.0841265
233.344	0.0828529
235.273	0.0809695
237.201	0.0789354
239.13	0.0774501
241.058	0.076043
242.987	0.0752444
244.915	0.0749955
246.844	0.0756325
248.772	0.0762671
250.701	0.0772513
252.629	0.0783647
254.558	0.0793434
256.486	0.0795393
258.414	0.0799745
260.343	0.080734
262.271	0.0809003
264.2	0.0800969
266.128	0.0795511
268.057	0.0789351
269.985	0.0785697
271.914	0.0780646
273.842	0.0774928
275.771	0.077191
277.699	0.0774534
279.628	0.0777369
281.556	0.0781157
283.485	0.0787424
285.413	0.0799187
287.341	0.0815916
289.27	0.083415
291.198	0.085088
293.127	0.0869078
295.055	0.0887174
296.984	0.0902418
298.912	0.0911445
300.841	0.0925982
302.769	0.0941403
304.698	0.0949825
306.626	0.0954548
308.555	0.0961966
310.483	0.0963383
312.411	0.0963194
314.34	0.0958172
316.269	0.0949631
318.197	0.0942464
320.125	0.0935862
322.054	0.0929313
323.982	0.0927337
325.911	0.0927009
327.839	0.0926955
329.768	0.0929607
331.696	0.093899
333.625	0.0950877
335.553	0.095965
337.482	0.0969246
339.41	0.0980615
341.339	0.0991124
343.267	0.100364
345.195	0.101419
347.124	0.101947
349.052	0.10234
350.981	0.103001
352.909	0.103256
354.838	0.10332
356.766	0.103444
358.695	0.103515
360.623	0.103443
362.552	0.103479
364.48	0.103369
366.409	0.10334
368.337	0.103782
370.265	0.104477
372.194	0.105333
374.122	0.106011
376.051	0.106581
377.979	0.107088
379.908	0.107085
381.836	0.106658
383.765	0.106143
385.693	0.105898
387.622	0.10552
389.55	0.105911
391.479	0.10663
393.407	0.107275
395.336	0.108335
397.264	0.109879
399.192	0.11148
401.121	0.113222
403.049	0.114877
404.978	0.116148
406.906	0.116808
408.835	0.11678
410.763	0.116595
412.692	0.116431
414.62	0.116541
416.549	0.116787
418.477	0.117374
420.406	0.118742
422.334	0.120353
424.262	0.122229
426.191	0.123459
428.12	0.124064
430.048	0.124004
431.976	0.123614
433.905	0.123066
435.833	0.122698
437.762	0.121912
439.69	0.121078
441.619	0.120036
443.547	0.118762
445.476	0.117345
447.404	0.116116
449.333	0.114827
451.261	0.113588
453.19	0.11253
455.118	0.11177
457.046	0.111561
458.975	0.11115
460.903	0.11105
462.832	0.111781
464.76	0.112067
466.689	0.11178
468.617	0.111598
470.546	0.11148
472.474	0.111365
474.403	0.111687
476.331	0.111724
478.26	0.111856
480.188	0.111813
482.116	0.111986
484.045	0.11278
485.974	0.113011
487.902	0.112742
489.83	0.112038
491.759	0.110078
493.687	0.107769
495.616	0.105858
497.544	0.104233
499.473	0.102484
501.401	0.10057
503.33	0.0982249
505.258	0.095669
507.187	0.0934066
509.115	0.0908078
511.043	0.0882971
512.972	0.0863958
514.9	0.0847621
516.829	0.0842074
518.757	0.0839693
520.686	0.0837009
522.614	0.0834327
524.543	0.0830139
526.471	0.0822252
528.4	0.081466
530.328	0.0804608
532.257	0.0796128
534.185	0.0790556
536.114	0.078823
538.042	0.078047
539.971	0.0772557
541.899	0.0765808
543.827	0.076387
545.756	0.0765225
547.684	0.0765538
549.613	0.076189
551.541	0.0763398
553.47	0.0770759
555.398	0.0773672
557.327	0.0778429
559.255	0.0791112
561.184	0.0804113
563.112	0.0814834
565.041	0.08252
566.969	0.083897
568.898	0.0849765
570.826	0.0856172
572.755	0.0857831
574.683	0.0856165
576.611	0.0846009
578.54	0.0836617
580.468	0.0825808
582.397	0.0811849
584.325	0.0799818
586.254	0.079397
588.182	0.079082
590.111	0.0792737
592.039	0.0798091
593.968	0.0807684
595.896	0.0821219
597.824	0.0838592
599.753	0.0850895
601.682	0.0853132
603.61	0.085345
605.538	0.0855977
607.467	0.0851226
609.395	0.0845659
611.324	0.0832967
613.252	0.0824634
615.181	0.0814969
617.109	0.0806353
619.038	0.0789236
620.966	0.0769655
622.894	0.0764357
624.823	0.0759456
626.751	0.0752351
628.68	0.0751358
630.608	0.074946
632.537	0.0744866
634.465	0.0736146
636.394	0.0727106
638.322	0.0716686
640.251	0.0712421
642.179	0.0708821
644.108	0.070192
646.036	0.069611
647.965	0.0694696
649.893	0.0695899
651.822	0.0695071
653.75	0.0692292
655.678	0.0689076
657.607	0.0685805
659.535	0.0684413
661.464	0.0681744
663.392	0.0676547
665.321	0.0672574
667.249	0.0668267
669.178	0.0661707
671.106	0.0656698
673.035	0.0658985
674.963	0.0660676
676.892	0.0663808
678.82	0.0671178
680.749	0.0678087
682.677	0.0686421
684.606	0.0686577
686.534	0.0688518
688.462	0.0689657
690.391	0.0688813
692.319	0.0682029
694.248	0.0681724
696.176	0.0677302
698.105	0.0672747
700.033	0.0661053
