Measurement: Infrared, Infrared Data Processed
Mineral: Vesuvianite
Rruff sample: R050489
Ideal chemistry: (Ca,Na)_19_(Al,Mg,Fe^3+^)_13_(SiO_4_)_10_(Si_2_O_7_)_4_(OH,F,O)_10_
Locality: Crestmore Quarry, Riverside County, California, USA
Source: California Institute of Technology
Description: Green prismatic crystal
Measured chemistry: Ca_19.00_(Al_9.56_Mg_2.36_Fe^2+^_0.86_Ti_0.22_)_Σ=13_Si_18.00_O_68_((OH)_9.59_F_0.41_)_Σ=10_ ; B not measured
x	intensity
50.1401	0.00663075
52.0686	0.00485425
53.9971	0.00715926
55.9255	0.0105413
57.854	0.0158162
59.7825	0.0138239
61.7109	0.0108241
63.6394	0.0108796
65.5679	0.0130519
67.4963	0.0149599
69.4248	0.0124607
71.3533	0.00999852
73.2817	0.0119065
75.2102	0.0152434
77.1387	0.0170902
79.0671	0.0174533
80.9956	0.0182479
82.9241	0.0179327
84.8525	0.01794
86.781	0.0183862
88.7095	0.0195644
90.6379	0.0196016
92.5664	0.0195781
94.4948	0.0209455
96.4233	0.0220905
98.3518	0.0225546
100.28	0.023344
102.209	0.0238885
104.137	0.0242005
106.066	0.0244399
107.994	0.0251411
109.923	0.0254435
111.851	0.0256371
113.779	0.0261225
115.708	0.0273004
117.636	0.0280325
119.565	0.0283455
121.493	0.0282483
123.422	0.0282318
125.35	0.0291431
127.279	0.0300407
129.207	0.0303
131.136	0.0312393
133.064	0.0322495
134.993	0.0327671
136.921	0.0336151
138.85	0.035056
140.778	0.0352281
142.707	0.0352947
144.635	0.0359094
146.563	0.0363217
148.492	0.0370041
150.42	0.0380938
152.349	0.0387836
154.277	0.0386997
156.206	0.0389121
158.134	0.0399731
160.063	0.0404533
161.991	0.0405876
163.92	0.041306
165.848	0.041936
167.777	0.0421808
169.705	0.0429426
171.633	0.0438174
173.562	0.0446988
175.49	0.0458041
177.419	0.0466161
179.347	0.0467355
181.276	0.0476362
183.204	0.0484952
185.133	0.0484714
187.061	0.0479305
188.99	0.0474806
190.918	0.0477617
192.847	0.0484906
194.775	0.0490084
196.704	0.0498282
198.632	0.050486
200.56	0.0512185
202.489	0.0522437
204.417	0.0529974
206.346	0.053099
208.274	0.0534467
210.203	0.0539411
212.131	0.0545679
214.06	0.0548795
215.988	0.0550546
217.917	0.0552761
219.845	0.0557088
221.774	0.0566133
223.702	0.0577195
225.631	0.0587939
227.559	0.060097
229.488	0.0606303
231.416	0.0608178
233.344	0.0603928
235.273	0.0599399
237.201	0.0598988
239.13	0.0594893
241.058	0.0589742
242.987	0.0592071
244.915	0.0597177
246.844	0.0601388
248.772	0.0608846
250.701	0.0617806
252.629	0.0626276
254.558	0.0634048
256.486	0.0639649
258.414	0.0643472
260.343	0.0647732
262.271	0.0654315
264.2	0.065805
266.128	0.0661956
268.057	0.0667308
269.985	0.0669127
271.914	0.0671689
273.842	0.0675955
275.771	0.0680393
277.699	0.0684079
279.628	0.0688594
281.556	0.0694005
283.485	0.0697983
285.413	0.0703757
287.341	0.0716745
289.27	0.0731037
291.198	0.073997
293.127	0.0747031
295.055	0.0751078
296.984	0.0758923
298.912	0.0770095
300.841	0.0781244
302.769	0.0789128
304.698	0.0790637
306.626	0.0792116
308.555	0.0797867
310.483	0.0801454
312.411	0.0802374
314.34	0.0802256
316.269	0.0804242
318.197	0.0810116
320.125	0.0815964
322.054	0.0816967
323.982	0.0819515
325.911	0.0820174
327.839	0.0821318
329.768	0.0817325
331.696	0.0813713
333.625	0.0816251
335.553	0.08185
337.482	0.0821582
339.41	0.0823946
341.339	0.082671
343.267	0.0835377
345.195	0.0841638
347.124	0.0843558
349.052	0.0850384
350.981	0.0854836
352.909	0.0857342
354.838	0.0861048
356.766	0.0863873
358.695	0.0863521
360.623	0.0862997
362.552	0.0864726
364.48	0.086979
366.409	0.0873368
368.337	0.0874274
370.265	0.0877185
372.194	0.0882175
374.122	0.0889241
376.051	0.0894424
377.979	0.0896792
379.908	0.089848
381.836	0.0897748
383.765	0.0898493
385.693	0.0899614
387.622	0.0900689
389.55	0.0905185
391.479	0.0911437
393.407	0.0919448
395.336	0.0929383
397.264	0.0936496
399.192	0.094575
401.121	0.0955103
403.049	0.0962346
404.978	0.0971267
406.906	0.0977476
408.835	0.0978341
410.763	0.0978757
412.692	0.0984828
414.62	0.0990165
416.549	0.0996492
418.477	0.100444
420.406	0.101194
422.334	0.102341
424.262	0.104129
426.191	0.105112
428.12	0.105393
430.048	0.105752
431.976	0.106221
433.905	0.106379
435.833	0.106212
437.762	0.106057
439.69	0.106213
441.619	0.105935
443.547	0.105326
445.476	0.104726
447.404	0.104155
449.333	0.103925
451.261	0.104202
453.19	0.104282
455.118	0.104636
457.046	0.105024
458.975	0.105487
460.903	0.105772
462.832	0.106049
464.76	0.106369
466.689	0.107554
468.617	0.108441
470.546	0.108343
472.474	0.10843
474.403	0.108883
476.331	0.109217
478.26	0.109494
480.188	0.109578
482.116	0.109386
484.045	0.109168
485.974	0.108739
487.902	0.107998
489.83	0.107009
491.759	0.105744
493.687	0.10433
495.616	0.103529
497.544	0.103095
499.473	0.102124
501.401	0.101375
503.33	0.100084
505.258	0.0983494
507.187	0.096694
509.115	0.095382
511.043	0.0941855
512.972	0.0934264
514.9	0.092932
516.829	0.0928733
518.757	0.0933804
520.686	0.0936913
522.614	0.0932649
524.543	0.0930176
526.471	0.0931914
528.4	0.0930377
530.328	0.0924994
532.257	0.0917984
534.185	0.0909391
536.114	0.090603
538.042	0.0905457
539.971	0.0901799
541.899	0.0897254
543.827	0.0899391
545.756	0.0901384
547.684	0.0903517
549.613	0.0909735
551.541	0.091136
553.47	0.0907345
555.398	0.0912372
557.327	0.092168
559.255	0.0933257
561.184	0.0943578
563.112	0.0951969
565.041	0.0960018
566.969	0.0964856
568.898	0.0965131
570.826	0.0965596
572.755	0.0962963
574.683	0.0958523
576.611	0.0950917
578.54	0.0940474
580.468	0.0931617
582.397	0.0927785
584.325	0.0928463
586.254	0.0930403
588.182	0.0933957
590.111	0.0941317
592.039	0.0946241
593.968	0.0952245
595.896	0.0963302
597.824	0.096769
599.753	0.096667
601.682	0.0971871
603.61	0.0971934
605.538	0.0965899
607.467	0.0958473
609.395	0.094801
611.324	0.0940035
613.252	0.0943245
615.181	0.0938359
617.109	0.0929814
619.038	0.0919917
620.966	0.0919243
622.894	0.0922756
624.823	0.09245
626.751	0.0927114
628.68	0.0931418
630.608	0.0933738
632.537	0.0936908
634.465	0.0935903
636.394	0.0932472
638.322	0.0927872
640.251	0.0924965
642.179	0.0922997
644.108	0.0920688
646.036	0.0913388
647.965	0.0905326
649.893	0.0900814
651.822	0.0898728
653.75	0.0896732
655.678	0.0891727
657.607	0.0886519
659.535	0.0889335
661.464	0.0888233
663.392	0.0883881
665.321	0.0882561
667.249	0.0883354
669.178	0.0880431
671.106	0.087552
673.035	0.0875785
674.963	0.087958
676.892	0.0883554
678.82	0.0884738
680.749	0.0881984
682.677	0.0878888
684.606	0.0874702
686.534	0.0875672
688.462	0.0876326
690.391	0.0880849
692.319	0.0886326
694.248	0.088457
696.176	0.0886356
698.105	0.0898439
700.033	0.0901552
