Measurement: Infrared, Infrared Data Processed
Mineral: Vivianite
Rruff sample: R050596
Ideal chemistry: Fe^2+^_3_(PO_4_)_2_8H_2_O
Locality: Chernomorskiy Quarry, near Kertch City, Crimea Peninsula, Ukraine
Source: Barb Dutrow
Description: Group of dark blue elongated prismatic single crystals in a fossilized clam shell
Measured chemistry: (Fe^2+^_2.89_Mg_0.08_Mn_0.03_)_Σ=3_(P_1.00_O_4_)_2_·8H_2_O
x	intensity
399.193	0.15811
408.835	0.152706
418.477	0.151076
428.12	0.158066
437.762	0.15981
447.404	0.160749
457.047	0.16355
466.689	0.165521
476.331	0.165057
485.974	0.166416
495.616	0.166742
505.258	0.173817
514.901	0.181669
524.543	0.192678
534.185	0.201351
543.828	0.195211
553.47	0.181751
563.112	0.171791
572.755	0.161295
582.397	0.148634
592.039	0.131038
601.682	0.119065
611.324	0.110311
620.966	0.105196
630.609	0.100041
640.251	0.0952933
649.893	0.0913449
659.536	0.0892135
669.178	0.0875978
678.82	0.0868379
688.463	0.0859029
698.105	0.0857981
707.747	0.0852984
717.39	0.0855328
727.032	0.0862655
736.674	0.0879335
746.317	0.0897824
755.959	0.0918343
765.601	0.0946462
775.244	0.0970803
784.886	0.0990387
794.528	0.100366
804.171	0.0997587
813.813	0.0982331
823.455	0.0959309
833.098	0.0936418
842.74	0.0910852
852.382	0.0914314
862.025	0.093528
871.667	0.0952976
881.309	0.101305
890.952	0.111956
900.594	0.126342
910.236	0.144508
919.879	0.170294
929.521	0.206429
939.163	0.248437
948.806	0.275853
958.448	0.294167
968.09	0.318893
977.733	0.315993
987.375	0.307256
997.017	0.302256
1006.66	0.297807
1016.3	0.286688
1025.94	0.273545
1035.59	0.262883
1045.23	0.248465
1054.87	0.221703
1064.51	0.190218
1074.16	0.162968
1083.8	0.138044
1093.44	0.119586
1103.08	0.105711
1112.72	0.0931186
1122.37	0.0820343
1132.01	0.0723279
1141.65	0.0621839
1151.3	0.05288
1160.94	0.0437468
1170.58	0.0350584
1180.22	0.0287471
1189.86	0.0236171
1199.51	0.0197623
1209.15	0.017016
1218.79	0.0155587
1228.43	0.014307
1238.08	0.0139261
1247.72	0.0128137
1257.36	0.0127334
1267	0.0129947
1276.64	0.0130997
1286.29	0.0132121
1295.93	0.0134883
1305.57	0.0137906
1315.21	0.0139965
1324.86	0.0143226
1334.5	0.0144507
1344.14	0.014657
1353.78	0.0152192
1363.43	0.0155389
1373.07	0.0157037
1382.71	0.0165728
1392.35	0.0176289
1401.99	0.019396
1411.64	0.0200754
1421.28	0.0210146
1430.92	0.0216288
1440.57	0.0219974
1450.21	0.0215936
1459.85	0.0208585
1469.49	0.0214495
1479.13	0.0234569
1488.78	0.0237534
1498.42	0.0245545
1508.06	0.0256528
1517.7	0.0262659
1527.35	0.0272552
1536.99	0.0292406
1546.63	0.0313308
1556.27	0.0328099
1565.91	0.0345586
1575.56	0.0358291
1585.2	0.0374057
1594.84	0.0386886
1604.48	0.0411282
1614.13	0.0429814
1623.77	0.0439005
1633.41	0.0443437
1643.05	0.0421308
1652.7	0.0396543
1662.34	0.0358054
1671.98	0.0317109
1681.62	0.027518
1691.27	0.0238786
1700.91	0.0209036
1710.55	0.0179247
1720.19	0.0159363
1729.84	0.0135581
1739.48	0.0106222
1749.12	0.0119999
1758.76	0.0144374
1768.4	0.0146006
1778.05	0.0140509
1787.69	0.0141663
1797.33	0.0144318
1806.97	0.0136805
1816.62	0.0139977
1826.26	0.0142831
1835.9	0.0133882
1845.54	0.0133666
1855.18	0.0138996
1864.83	0.0125695
1874.47	0.0130157
1884.11	0.0131384
1893.75	0.0133058
1903.4	0.0130522
1913.04	0.0125293
1922.68	0.0115838
1932.32	0.0101863
1941.97	0.0102919
1951.61	0.0102229
1961.25	0.00990303
1970.89	0.00565868
1980.54	0.0121829
1990.18	0.0107857
1999.82	0.00988081
2009.46	0.00871099
2019.11	0.00868306
2028.75	0.00973469
2038.39	0.0112825
2048.03	0.0121698
2057.67	0.0145997
2067.32	0.0114279
2076.96	0.0149819
2086.6	0.0131677
2096.24	0.0114101
2105.89	0.0147321
2115.53	0.0155295
2125.17	0.0130167
2134.81	0.0140874
2144.45	0.010656
2154.1	0.012138
2163.74	0.0165597
2173.38	0.0141985
2183.02	0.0131612
2192.67	0.0183307
2202.31	0.0187708
2211.95	0.0163164
2221.59	0.0185595
2231.24	0.0209571
2240.88	0.0208461
2250.52	0.0203684
2260.16	0.0200777
2269.8	0.0218062
2279.45	0.02426
2289.09	0.0244918
2298.73	0.0229249
2308.38	0.0243296
2318.02	0.025149
2327.66	0.024797
2337.3	0.0241637
2346.94	0.0248632
2356.59	0.0249122
2366.23	0.0257474
2375.87	0.0247564
2385.51	0.024441
2395.16	0.0265787
2404.8	0.0256336
2414.44	0.0255485
2424.08	0.0243777
2433.72	0.026316
2443.37	0.0265028
2453.01	0.0259785
2462.65	0.0262779
2472.29	0.0262057
2481.94	0.024805
2491.58	0.027993
2501.22	0.028533
2510.86	0.0271943
2520.51	0.0295176
2530.15	0.028234
2539.79	0.0280205
2549.43	0.0292619
2559.07	0.0290395
2568.72	0.0317376
2578.36	0.0303358
2588	0.0302314
2597.64	0.0302125
2607.29	0.0323313
2616.93	0.0333795
2626.57	0.0342136
2636.21	0.0343467
2645.86	0.0359327
2655.5	0.0362445
2665.14	0.0375257
2674.78	0.0380637
2684.43	0.0396046
2694.07	0.0407411
2703.71	0.042314
2713.35	0.0431815
2722.99	0.0452166
2732.64	0.0457359
2742.28	0.0453761
2751.92	0.049716
2761.56	0.0507741
2771.21	0.0512443
2780.85	0.0532017
2790.49	0.0547286
2800.13	0.0557437
2809.78	0.0582058
2819.42	0.0593305
2829.06	0.0615715
2838.7	0.0627311
2848.34	0.0625252
2857.99	0.0658515
2867.63	0.0672801
2877.27	0.0707525
2886.91	0.0703439
2896.56	0.0744337
2906.2	0.0740261
2915.84	0.0778907
2925.48	0.0771921
2935.13	0.0817738
2944.77	0.0854963
2954.41	0.0886114
2964.05	0.0926506
2973.7	0.0912175
2983.34	0.0970669
2992.98	0.0973022
3002.62	0.101881
3012.26	0.103672
3021.91	0.104901
3031.55	0.107161
3041.19	0.112201
3050.83	0.112962
3060.48	0.115441
3070.12	0.118807
3079.76	0.1195
3089.4	0.122682
3099.05	0.125063
3108.69	0.127194
3118.33	0.126549
3127.97	0.130855
3137.61	0.131495
3147.26	0.132668
3156.9	0.136595
3166.54	0.133966
3176.18	0.136661
3185.83	0.135891
3195.47	0.137054
3205.11	0.13489
3214.75	0.13496
3224.4	0.135841
3234.04	0.134434
3243.68	0.134378
3253.32	0.135987
3262.97	0.134755
3272.61	0.132198
3282.25	0.13396
3291.89	0.131656
3301.53	0.131528
3311.18	0.130523
3320.82	0.128657
3330.46	0.129552
3340.1	0.125864
3349.75	0.123709
3359.39	0.122244
3369.03	0.123271
3378.67	0.119462
3388.32	0.120799
3397.96	0.117028
3407.6	0.115443
3417.24	0.110873
3426.89	0.112705
3436.53	0.10841
3446.17	0.109201
3455.81	0.103331
3465.45	0.104676
3475.1	0.102541
3484.74	0.097961
3494.38	0.0887482
3504.02	0.084815
3513.67	0.0751379
3523.31	0.0692573
3532.95	0.0675237
3542.59	0.0570544
3552.24	0.0507192
3561.88	0.045889
3571.52	0.0434237
3581.16	0.0359999
3590.8	0.0345307
3600.45	0.0228442
3610.09	0.0233015
3619.73	0.0160194
3629.37	0.0116448
3639.02	0.0121532
3648.66	0.0104124
3658.3	0.00931542
3667.94	0.0105185
3677.59	0.0090237
3687.23	0.0113756
3696.87	0.00899563
3706.51	0.00850578
3716.16	0.00922892
3725.8	0.00676354
3735.44	0.011216
3745.08	0.0106045
3754.72	0.00882154
3764.37	0.011147
3774.01	0.00927186
3783.65	0.0103518
3793.29	0.0088031
3802.94	0.0057783
3812.58	0.00458947
3822.22	0.00937999
3831.86	0.00897903
3841.51	0.00614707
3851.15	0.0116072
3860.79	0.0113361
3870.43	0.0116184
3880.07	0.00970131
3889.72	0.0106409
3899.36	0.0109798
3909	0.0117211
3918.64	0.0129146
3928.29	0.00931425
3937.93	0.0118492
3947.57	0.0062371
3957.21	0.0155958
3966.86	0.00839565
3976.5	0.0105236
3986.14	0.0111568
3995.78	0.0158846
