Measurement: Infrared, Infrared Data Processed
Mineral: Vladimirivanovite
Rruff sample: R130034
Ideal chemistry: Na_6_Ca_2_[Al_6_Si_6_O_24_](S^6+^O_4_,(S_3_)^2-^,(S_2_)^2-^,Cl)_2_H_2_O
Locality: Southwestern Baikal region (Irkutsk region), Russia
Source: Anatoly Sapozhnikov
Description: Dark blue to ink-blue, non-uniform and spotty, massive. Associated with lazurite, calcite, afganite, tounkite, phlogopite and marialite. Data from Sapozhnikov et al (2011)
Measured chemistry: Na_6.36_Ca_1.52_(Si_6.03_Al_5.97_)_Σ=12_O_23.99_(SO_4_)_1.58_(S_3_)_0.17_(S_2_)_0.08_·Cl_0.04_·0.62H_2_O
x	intensity
3999.18	0.44076
3990.01	0.44126
3980.85	0.44142
3971.69	0.44187
3962.53	0.44204
3953.37	0.44241
3944.21	0.44269
3935.05	0.44291
3925.88	0.44333
3916.72	0.44371
3907.56	0.44394
3898.4	0.44457
3889.24	0.44476
3880.08	0.44512
3870.92	0.44531
3861.76	0.44576
3852.59	0.44652
3843.43	0.44629
3834.27	0.44678
3825.11	0.44695
3815.95	0.44752
3806.79	0.4479
3797.63	0.44788
3788.46	0.44825
3779.3	0.44845
3770.14	0.44874
3760.98	0.44861
3751.82	0.44871
3742.66	0.44905
3733.5	0.44909
3724.33	0.44889
3715.17	0.44843
3706.01	0.4482
3696.85	0.44737
3687.69	0.44597
3678.53	0.44377
3669.37	0.4442
3660.21	0.44306
3651.04	0.44126
3641.88	0.43914
3632.72	0.43632
3623.56	0.43322
3614.4	0.4302
3605.24	0.4275
3596.08	0.42437
3586.91	0.42131
3577.75	0.41783
3568.59	0.41461
3559.43	0.41161
3550.27	0.4087
3541.11	0.40606
3531.95	0.40345
3522.78	0.40098
3513.62	0.39848
3504.46	0.39615
3495.3	0.39446
3486.14	0.39288
3476.98	0.39132
3467.82	0.3899
3458.66	0.38848
3449.49	0.3872
3440.33	0.38656
3431.17	0.38631
3422.01	0.38669
3412.85	0.38786
3403.69	0.38988
3394.53	0.39306
3385.36	0.39696
3376.2	0.40147
3367.04	0.40632
3357.88	0.4111
3348.72	0.41593
3339.56	0.42024
3330.4	0.42422
3321.23	0.42769
3312.07	0.43054
3302.91	0.43255
3293.75	0.43409
3284.59	0.43541
3275.43	0.4371
3266.27	0.43869
3257.11	0.44064
3247.94	0.44275
3238.78	0.44514
3229.62	0.44759
3220.46	0.45003
3211.3	0.45239
3202.14	0.45472
3192.98	0.45695
3183.81	0.45905
3174.65	0.46114
3165.49	0.46302
3156.33	0.46474
3147.17	0.46634
3138.01	0.46808
3128.85	0.4694
3119.68	0.47089
3110.52	0.47226
3101.36	0.47368
3092.2	0.47502
3083.04	0.47643
3073.88	0.47748
3064.72	0.47862
3055.56	0.47961
3046.39	0.48062
3037.23	0.48151
3028.07	0.4823
3018.91	0.48313
3009.75	0.48376
3000.59	0.48416
2991.43	0.48422
2982.26	0.48431
2973.1	0.48414
2963.94	0.48358
2954.78	0.48354
2945.62	0.48359
2936.46	0.48214
2927.3	0.48055
2918.13	0.48151
2908.97	0.48498
2899.81	0.4866
2890.65	0.48754
2881.49	0.48799
2872.33	0.48824
2863.17	0.48848
2854.01	0.4881
2844.84	0.49117
2835.68	0.49358
2826.52	0.49472
2817.36	0.49557
2808.2	0.4963
2799.04	0.49694
2789.88	0.49754
2780.71	0.49804
2771.55	0.49854
2762.39	0.49905
2753.23	0.49944
2744.07	0.49987
2734.91	0.50028
2725.75	0.50079
2716.59	0.50109
2707.42	0.50153
2698.26	0.50192
2689.1	0.50236
2679.94	0.50276
2670.78	0.50313
2661.62	0.50347
2652.46	0.50383
2643.29	0.50417
2634.13	0.50441
2624.97	0.5046
2615.81	0.50478
2606.65	0.50492
2597.49	0.50512
2588.33	0.50542
2579.16	0.50561
2570	0.50602
2560.84	0.5063
2551.68	0.50651
2542.52	0.50655
2533.36	0.50575
2524.2	0.50488
2515.04	0.50555
2505.87	0.50703
2496.71	0.50837
2487.55	0.50928
2478.39	0.50997
2469.23	0.51045
2460.07	0.51076
2450.91	0.51106
2441.74	0.51125
2432.58	0.5115
2423.42	0.51167
2414.26	0.51185
2405.1	0.51197
2395.94	0.51202
2386.78	0.512
2377.61	0.51238
2368.45	0.51298
2359.29	0.51276
2350.13	0.50943
2340.97	0.5074
2331.81	0.51397
2322.65	0.51428
2313.49	0.51424
2304.32	0.51422
2295.16	0.51428
2286	0.51427
2276.84	0.51425
2267.68	0.51437
2258.52	0.51435
2249.36	0.51434
2240.19	0.51437
2231.03	0.51436
2221.87	0.51434
2212.71	0.51423
2203.55	0.51408
2194.39	0.51378
2185.23	0.51336
2176.06	0.51288
2166.9	0.51243
2157.74	0.51211
2148.58	0.51194
2139.42	0.512
2130.26	0.51202
2121.1	0.51192
2111.94	0.51206
2102.77	0.51235
2093.61	0.51252
2084.45	0.51265
2075.29	0.51271
2066.13	0.51284
2056.97	0.51295
2047.81	0.51302
2038.64	0.51313
2029.48	0.51342
2020.32	0.51352
2011.16	0.51338
2002	0.51323
1992.84	0.513
1983.68	0.51281
1974.51	0.51268
1965.35	0.51255
1956.19	0.51239
1947.03	0.5123
1937.87	0.51209
1928.71	0.51172
1919.55	0.51129
1910.39	0.51061
1901.22	0.50995
1892.06	0.50916
1882.9	0.50827
1873.74	0.50729
1864.58	0.50635
1855.42	0.50525
1846.26	0.50429
1837.09	0.50302
1827.93	0.5018
1818.77	0.5005
1809.61	0.4988
1800.45	0.49631
1791.29	0.49635
1782.13	0.49595
1772.96	0.49443
1763.8	0.49251
1754.64	0.49042
1745.48	0.48795
1736.32	0.48569
1727.16	0.48256
1718	0.47986
1708.84	0.47683
1699.67	0.47359
1690.51	0.47035
1681.35	0.46673
1672.19	0.46365
1663.03	0.46129
1653.87	0.45989
1644.71	0.45733
1635.54	0.45511
1626.38	0.45336
1617.22	0.45565
1608.06	0.45824
1598.9	0.45995
1589.74	0.46068
1580.58	0.46096
1571.41	0.46072
1562.25	0.45949
1553.09	0.45674
1543.93	0.45407
1534.77	0.45091
1525.61	0.44725
1516.45	0.44296
1507.29	0.43894
1498.12	0.43322
1488.96	0.4275
1479.8	0.42211
1470.64	0.41556
1461.48	0.41027
1452.32	0.40475
1443.16	0.40036
1433.99	0.39553
1424.83	0.39145
1415.67	0.3901
1406.51	0.39317
1397.35	0.39509
1388.19	0.39694
1379.03	0.39718
1369.86	0.39658
1360.7	0.39514
1351.54	0.39374
1342.38	0.3918
1333.22	0.38896
1324.06	0.38494
1314.9	0.38094
1305.74	0.37674
1296.57	0.37209
1287.41	0.36708
1278.25	0.36154
1269.09	0.35544
1259.93	0.3488
1250.77	0.34157
1241.61	0.33341
1232.44	0.32441
1223.28	0.31553
1214.12	0.30602
1204.96	0.29414
1195.8	0.27914
1186.64	0.25967
1177.48	0.24251
1168.31	0.23306
1159.15	0.22773
1149.99	0.22466
1140.83	0.22342
1131.67	0.22438
1122.51	0.22491
1113.35	0.2251
1104.19	0.22803
1095.02	0.23257
1085.86	0.23784
1076.7	0.23408
1067.54	0.22104
1058.38	0.20114
1049.22	0.17752
1040.06	0.15816
1030.89	0.14501
1021.73	0.13234
1012.57	0.12057
1003.41	0.11316
994.249	0.11514
985.088	0.123
975.926	0.13007
966.765	0.14162
957.603	0.15943
948.442	0.18338
939.281	0.20949
930.119	0.23671
920.958	0.26352
911.797	0.29049
902.635	0.31809
893.474	0.3467
884.313	0.37134
875.151	0.39268
865.99	0.43638
856.828	0.47347
847.667	0.50864
838.506	0.54538
829.344	0.57978
820.183	0.61272
811.022	0.64341
801.86	0.67074
792.699	0.69512
783.538	0.7135
774.376	0.72469
765.215	0.71982
756.053	0.68338
746.892	0.61503
737.731	0.51385
728.569	0.45239
719.408	0.42507
710.247	0.44581
701.085	0.41155
691.924	0.44285
682.763	0.50072
673.601	0.5345
664.44	0.48422
655.278	0.42762
646.117	0.41225
636.956	0.44337
627.794	0.51738
618.633	0.50477
609.472	0.50249
600.31	0.61888
591.149	0.68269
581.988	0.71295
572.826	0.73241
563.665	0.74006
554.504	0.7314
545.342	0.71439
536.181	0.69331
527.019	0.66489
517.858	0.6253
508.697	0.57652
499.535	0.51505
490.374	0.43926
481.213	0.34837
472.051	0.25741
462.89	0.21657
453.729	0.17544
444.567	0.17434
435.406	0.19791
426.244	0.20632
417.083	0.24159
407.922	0.28603
398.76	0.27478
389.599	0.26041
380.438	0.29783
371.276	0.34376
