Measurement: Infrared, Infrared Data Processed
Mineral: Volborthite
Rruff sample: R050249
Ideal chemistry: Cu^2+^_3_V^5+^_2_O_7_(OH)_2_2H_2_O
Locality: Carlin Gold mine, Elko, Lynn District, Eureka County, Nevada, USA
Source: Marcus Origlieri
Description: Green lamellar
x	intensity
399.193	0.242758
408.835	0.257139
418.477	0.276477
428.12	0.273451
437.762	0.270356
447.404	0.280739
457.047	0.294103
466.689	0.283579
476.331	0.271172
485.974	0.26621
495.616	0.28467
505.258	0.309169
514.901	0.281292
524.543	0.271893
534.185	0.263853
543.828	0.22549
553.47	0.236381
563.112	0.255567
572.755	0.2199
582.397	0.222828
592.039	0.237458
601.682	0.234523
611.324	0.238279
620.966	0.250184
630.609	0.250147
640.251	0.243955
649.893	0.254422
659.536	0.297549
669.178	0.330741
678.82	0.341805
688.463	0.350353
698.105	0.356814
707.747	0.38254
717.39	0.412535
727.032	0.426114
736.674	0.422134
746.317	0.39729
755.959	0.363057
765.601	0.345338
775.244	0.335402
784.886	0.316586
794.528	0.300836
804.171	0.263167
813.813	0.227549
823.455	0.215778
833.098	0.269323
842.74	0.308693
852.382	0.272767
862.025	0.219699
871.667	0.188792
881.309	0.190173
890.952	0.261118
900.594	0.22548
910.236	0.149595
919.879	0.0995963
929.521	0.0738747
939.163	0.0639942
948.806	0.061573
958.448	0.0632866
968.09	0.0696361
977.733	0.0790108
987.375	0.094182
997.017	0.117993
1006.66	0.153843
1016.3	0.180768
1025.94	0.198127
1035.59	0.190028
1045.23	0.190033
1054.87	0.192319
1064.51	0.204477
1074.16	0.222388
1083.8	0.225202
1093.44	0.206304
1103.08	0.178606
1112.72	0.150194
1122.37	0.122681
1132.01	0.101377
1141.65	0.087219
1151.3	0.0772523
1160.94	0.0717572
1170.58	0.0649845
1180.22	0.0611986
1189.86	0.0584494
1199.51	0.0552635
1209.15	0.0536438
1218.79	0.0542577
1228.43	0.0565352
1238.08	0.0572019
1247.72	0.0541962
1257.36	0.0471276
1267	0.0375184
1276.64	0.0282106
1286.29	0.0218146
1295.93	0.0195034
1305.57	0.0185004
1315.21	0.0182776
1324.86	0.0182051
1334.5	0.0181361
1344.14	0.0183129
1353.78	0.0185562
1363.43	0.0187219
1373.07	0.0192669
1382.71	0.0196212
1392.35	0.0204311
1401.99	0.0215186
1411.64	0.0226779
1421.28	0.0237489
1430.92	0.0243982
1440.57	0.0235539
1450.21	0.0236293
1459.85	0.0242027
1469.49	0.0235843
1479.13	0.0230075
1488.78	0.022948
1498.42	0.0231863
1508.06	0.0238109
1517.7	0.0241989
1527.35	0.0249777
1536.99	0.0260946
1546.63	0.027131
1556.27	0.0287956
1565.91	0.0305424
1575.56	0.0332638
1585.2	0.0365819
1594.84	0.0433509
1604.48	0.0604635
1614.13	0.0876248
1623.77	0.0525843
1633.41	0.0376803
1643.05	0.032413
1652.7	0.0307521
1662.34	0.0288902
1671.98	0.0277104
1681.62	0.0272809
1691.27	0.0263768
1700.91	0.026617
1710.55	0.0255664
1720.19	0.0250139
1729.84	0.0242136
1739.48	0.0234524
1749.12	0.0234392
1758.76	0.0243001
1768.4	0.0251436
1778.05	0.0254842
1787.69	0.0262291
1797.33	0.0266654
1806.97	0.0265679
1816.62	0.0264816
1826.26	0.0271121
1835.9	0.0273716
1845.54	0.0283012
1855.18	0.0292129
1864.83	0.03048
1874.47	0.0318118
1884.11	0.0324121
1893.75	0.033702
1903.4	0.0349049
1913.04	0.0357036
1922.68	0.0363189
1932.32	0.0381392
1941.97	0.0395889
1951.61	0.0418079
1961.25	0.0439358
1970.89	0.0461036
1980.54	0.0495509
1990.18	0.0488965
1999.82	0.0475949
2009.46	0.0445217
2019.11	0.0431568
2028.75	0.0413997
2038.39	0.0407584
2048.03	0.0395058
2057.67	0.0394144
2067.32	0.0400706
2076.96	0.0398169
2086.6	0.0400765
2096.24	0.0402682
2105.89	0.0412857
2115.53	0.0416653
2125.17	0.0406292
2134.81	0.0398842
2144.45	0.037658
2154.1	0.0356961
2163.74	0.0400138
2173.38	0.0395851
2183.02	0.0388729
2192.67	0.0411545
2202.31	0.0414264
2211.95	0.0407602
2221.59	0.0410223
2231.24	0.0421033
2240.88	0.0420063
2250.52	0.0412966
2260.16	0.0426365
2269.8	0.0427888
2279.45	0.0441665
2289.09	0.0441896
2298.73	0.0436329
2308.38	0.043779
2318.02	0.0443843
2327.66	0.044988
2337.3	0.0451109
2346.94	0.0448869
2356.59	0.0452927
2366.23	0.0458322
2375.87	0.0451418
2385.51	0.0451009
2395.16	0.0458293
2404.8	0.0459763
2414.44	0.0466745
2424.08	0.0475805
2433.72	0.0475955
2443.37	0.0484383
2453.01	0.0491824
2462.65	0.0496909
2472.29	0.0497355
2481.94	0.0506849
2491.58	0.0509368
2501.22	0.0521979
2510.86	0.053015
2520.51	0.0541046
2530.15	0.0552959
2539.79	0.0565163
2549.43	0.0582068
2559.07	0.0596972
2568.72	0.0610322
2578.36	0.0615795
2588	0.0634182
2597.64	0.064895
2607.29	0.0666927
2616.93	0.0678415
2626.57	0.0691291
2636.21	0.0708044
2645.86	0.0714664
2655.5	0.0726982
2665.14	0.0742094
2674.78	0.075339
2684.43	0.0774916
2694.07	0.0795573
2703.71	0.0819296
2713.35	0.0842374
2722.99	0.0872775
2732.64	0.0899472
2742.28	0.0930367
2751.92	0.0965513
2761.56	0.100051
2771.21	0.103957
2780.85	0.107727
2790.49	0.111897
2800.13	0.115591
2809.78	0.119503
2819.42	0.123246
2829.06	0.127287
2838.7	0.130049
2848.34	0.1318
2857.99	0.134575
2867.63	0.135668
2877.27	0.136591
2886.91	0.135959
2896.56	0.136064
2906.2	0.135215
2915.84	0.133358
2925.48	0.132431
2935.13	0.129821
2944.77	0.127631
2954.41	0.126451
2964.05	0.124161
2973.7	0.121041
2983.34	0.11929
2992.98	0.117403
3002.62	0.116311
3012.26	0.115401
3021.91	0.113962
3031.55	0.112807
3041.19	0.110519
3050.83	0.109625
3060.48	0.108134
3070.12	0.106004
3079.76	0.104976
3089.4	0.10347
3099.05	0.101458
3108.69	0.100282
3118.33	0.0990275
3127.97	0.0975911
3137.61	0.0961104
3147.26	0.0946729
3156.9	0.0939851
3166.54	0.0925959
3176.18	0.0913214
3185.83	0.0911841
3195.47	0.0903874
3205.11	0.0893599
3214.75	0.0880338
3224.4	0.0868834
3234.04	0.0876811
3243.68	0.0871752
3253.32	0.0883805
3262.97	0.0883347
3272.61	0.0895571
3282.25	0.0896181
3291.89	0.0912167
3301.53	0.0918872
3311.18	0.0942848
3320.82	0.0954551
3330.46	0.0973691
3340.1	0.0988034
3349.75	0.10174
3359.39	0.104067
3369.03	0.107078
3378.67	0.111059
3388.32	0.115667
3397.96	0.120793
3407.6	0.126008
3417.24	0.131717
3426.89	0.136449
3436.53	0.142658
3446.17	0.148302
3455.81	0.154266
3465.45	0.16163
3475.1	0.167244
3484.74	0.171903
3494.38	0.167847
3504.02	0.163763
3513.67	0.161375
3523.31	0.155857
3532.95	0.147646
3542.59	0.137136
3552.24	0.12385
3561.88	0.10869
3571.52	0.0944705
3581.16	0.083185
3590.8	0.0746617
3600.45	0.0700866
3610.09	0.0664056
3619.73	0.066383
3629.37	0.0619928
3639.02	0.060417
3648.66	0.0600832
3658.3	0.0589859
3667.94	0.0587496
3677.59	0.0578438
3687.23	0.0605453
3696.87	0.0633723
3706.51	0.0584391
3716.16	0.0566956
3725.8	0.0561878
3735.44	0.0572855
3745.08	0.057647
3754.72	0.0572635
3764.37	0.0578896
3774.01	0.0590355
3783.65	0.0575743
3793.29	0.0580452
3802.94	0.0579885
3812.58	0.058378
3822.22	0.0595675
3831.86	0.0601553
3841.51	0.0592486
3851.15	0.061453
3860.79	0.060021
3870.43	0.0607958
3880.07	0.0603247
3889.72	0.0617663
3899.36	0.0612689
3909	0.0618417
3918.64	0.061683
3928.29	0.0615558
3937.93	0.0623488
3947.57	0.0629905
3957.21	0.0623917
3966.86	0.0626395
3976.5	0.0630652
3986.14	0.063616
3995.78	0.063945
