Measurement: Infrared, Infrared Data Processed
Mineral: Vonsenite
Rruff sample: R050221
Ideal chemistry: Fe^2+^_2_Fe^3+^O_2_(BO_3_)
Locality: Monchi mine, Burguillos del Cerro, Badajoz, Extremadura, Spain
Source: Marcus Origlieri
Description: Mass of thin bladed black crystals
Measured chemistry: (Fe^2+^_1.96_Mg_0.03_Mn_0.01_)_Σ=2_(Fe^3+^_0.98_Al_0.02_)_Σ=1_BO_5_
x	intensity
50.1401	0.0172509
52.0686	0.0168183
53.9971	0.0153904
55.9255	0.0196507
57.854	0.0243675
59.7825	0.0336964
61.7109	0.0281604
63.6394	0.0284599
65.5679	0.0288227
67.4963	0.0250872
69.4248	0.0244423
71.3533	0.0272652
73.2817	0.0290631
75.2102	0.0289147
77.1387	0.0298172
79.0671	0.0330064
80.9956	0.0330014
82.9241	0.0323583
84.8525	0.0326903
86.781	0.0322788
88.7095	0.0321767
90.6379	0.0328691
92.5664	0.0336874
94.4948	0.0347035
96.4233	0.0355823
98.3518	0.0357844
100.28	0.0346697
102.209	0.0352553
104.137	0.0362079
106.066	0.0367848
107.994	0.0367384
109.923	0.0373518
111.851	0.0379751
113.779	0.0384508
115.708	0.0385963
117.636	0.0388944
119.565	0.0392394
121.493	0.0401909
123.422	0.0405333
125.35	0.0410456
127.279	0.0415045
129.207	0.0418644
131.136	0.0421963
133.064	0.0427897
134.993	0.0432784
136.921	0.0439719
138.85	0.043944
140.778	0.0445753
142.707	0.0449553
144.635	0.0450512
146.563	0.0458176
148.492	0.0465499
150.42	0.046273
152.349	0.0466651
154.277	0.0472676
156.206	0.0476654
158.134	0.047418
160.063	0.0476954
161.991	0.0481178
163.92	0.0485932
165.848	0.0492277
167.777	0.0497302
169.705	0.0503759
171.633	0.0509553
173.562	0.0508047
175.49	0.050786
177.419	0.0514171
179.347	0.052327
181.276	0.0525608
183.204	0.0524079
185.133	0.052631
187.061	0.0527531
188.99	0.0527411
190.918	0.0526749
192.847	0.0529744
194.775	0.0536379
196.704	0.0538589
198.632	0.0539547
200.56	0.0539952
202.489	0.0541535
204.417	0.0539263
206.346	0.0535181
208.274	0.053338
210.203	0.0539737
212.131	0.0549209
214.06	0.0555897
215.988	0.055643
217.917	0.0557994
219.845	0.0561684
221.774	0.0564236
223.702	0.0562165
225.631	0.0561487
227.559	0.0562843
229.488	0.0565308
231.416	0.0564562
233.344	0.0566441
235.273	0.0567759
237.201	0.0565141
239.13	0.0562159
241.058	0.0565501
242.987	0.0564255
244.915	0.0566316
246.844	0.0570647
248.772	0.0571938
250.701	0.0571954
252.629	0.0569251
254.558	0.0569397
256.486	0.0572697
258.414	0.057569
260.343	0.0576017
262.271	0.0576858
264.2	0.0576979
266.128	0.0574544
268.057	0.057601
269.985	0.0578203
271.914	0.0581603
273.842	0.0582603
275.771	0.0580183
277.699	0.0579889
279.628	0.0578357
281.556	0.0573727
283.485	0.0566658
285.413	0.0563444
287.341	0.0562386
289.27	0.0558113
291.198	0.0554762
293.127	0.0556839
295.055	0.0561526
296.984	0.0565797
298.912	0.0569597
300.841	0.0574737
302.769	0.0585884
304.698	0.0594933
306.626	0.0600719
308.555	0.0609995
310.483	0.0618481
312.411	0.0622646
314.34	0.0625433
316.269	0.0629322
318.197	0.0632345
320.125	0.0638132
322.054	0.0644062
323.982	0.0650128
325.911	0.0655441
327.839	0.0657504
329.768	0.0661221
331.696	0.0663318
333.625	0.0665006
335.553	0.0668409
337.482	0.0668541
339.41	0.0667351
341.339	0.0669991
343.267	0.0672443
345.195	0.0672985
347.124	0.0675676
349.052	0.0676326
350.981	0.0678193
352.909	0.0682256
354.838	0.0682378
356.766	0.0683707
358.695	0.0685569
360.623	0.0683308
362.552	0.0679982
364.48	0.0677008
366.409	0.0673831
368.337	0.0671708
370.265	0.0670824
372.194	0.0674285
374.122	0.0677189
376.051	0.068082
377.979	0.0683835
379.908	0.0683881
381.836	0.0685642
383.765	0.0687889
385.693	0.0691508
387.622	0.0695122
389.55	0.0696557
391.479	0.069729
393.407	0.0695105
395.336	0.0694851
397.264	0.0695554
399.192	0.0694874
401.121	0.0695875
403.049	0.0697865
404.978	0.0698498
406.906	0.069628
408.835	0.0694163
410.763	0.0693585
412.692	0.0695724
414.62	0.0696531
416.549	0.0698499
418.477	0.0699822
420.406	0.0702952
422.334	0.0704122
424.262	0.0707923
426.191	0.0712036
428.12	0.0714355
430.048	0.0718335
431.976	0.0721998
433.905	0.0722821
435.833	0.0725818
437.762	0.0726387
439.69	0.0723421
441.619	0.0717283
443.547	0.0712841
445.476	0.0708794
447.404	0.0704469
449.333	0.0698728
451.261	0.0693877
453.19	0.0689447
455.118	0.0683127
457.046	0.0677009
458.975	0.06724
460.903	0.0668137
462.832	0.0666145
464.76	0.0661596
466.689	0.0657203
468.617	0.0650701
470.546	0.0643147
472.474	0.0640516
474.403	0.0638984
476.331	0.0637967
478.26	0.0638947
480.188	0.0640365
482.116	0.0638005
484.045	0.0635218
485.974	0.0633962
487.902	0.0629419
489.83	0.0623961
491.759	0.0617017
493.687	0.0610426
495.616	0.0602789
497.544	0.0593471
499.473	0.0586323
501.401	0.0579461
503.33	0.0567683
505.258	0.0557181
507.187	0.0550092
509.115	0.0541815
511.043	0.053414
512.972	0.0527777
514.9	0.0522202
516.829	0.05209
518.757	0.0517421
520.686	0.0512649
522.614	0.051026
524.543	0.0507184
526.471	0.0503551
528.4	0.0500304
530.328	0.0497026
532.257	0.049488
534.185	0.0495759
536.114	0.0498914
538.042	0.0496435
539.971	0.0494781
541.899	0.0498923
543.827	0.0503402
545.756	0.0507361
547.684	0.0516042
549.613	0.0522614
551.541	0.0530742
553.47	0.0537434
555.398	0.0542858
557.327	0.0550414
559.255	0.0557861
561.184	0.056617
563.112	0.0575835
565.041	0.0587556
566.969	0.059764
568.898	0.0606279
570.826	0.0617759
572.755	0.0629194
574.683	0.063925
576.611	0.0647271
578.54	0.0652914
580.468	0.0656567
582.397	0.0660763
584.325	0.0664337
586.254	0.0666223
588.182	0.0667218
590.111	0.0665647
592.039	0.0660897
593.968	0.065445
595.896	0.0647146
597.824	0.0637424
599.753	0.0622872
601.682	0.060561
603.61	0.0587756
605.538	0.0572414
607.467	0.0559338
609.395	0.0544445
611.324	0.0531156
613.252	0.0525412
615.181	0.0521138
617.109	0.0513643
619.038	0.0506019
620.966	0.0508074
622.894	0.0510753
624.823	0.0520726
626.751	0.0533812
628.68	0.0543811
630.608	0.0553834
632.537	0.0559498
634.465	0.0564238
636.394	0.0571128
638.322	0.0576775
640.251	0.0581068
642.179	0.0590671
644.108	0.0601156
646.036	0.0610992
647.965	0.0619858
649.893	0.0627721
651.822	0.0632248
653.75	0.0638641
655.678	0.0645946
657.607	0.0652858
659.535	0.065983
661.464	0.0667842
663.392	0.067928
665.321	0.0688589
667.249	0.0697111
669.178	0.0707273
671.106	0.0719115
673.035	0.0736853
674.963	0.0757615
676.892	0.0774799
678.82	0.0780947
680.749	0.0780042
682.677	0.0777087
684.606	0.0764275
686.534	0.0752006
688.462	0.074144
690.391	0.073159
692.319	0.0721739
694.248	0.0711876
696.176	0.0696609
698.105	0.069192
700.033	0.0678214
