Measurement: Infrared, Infrared Data Processed
Mineral: Vuagnatite
Rruff sample: R050397
Ideal chemistry: CaAlSiO_4_(OH)
Locality: Red Mountain, Mendocino County, California, USA
Source: Marcus Origlieri
Description: Colorless prismatic crystals
Measured chemistry: Ca_1.00_Al_1.00_(Si_1.00_O_4_)(OH)
x	intensity
374.123	0.19411
383.765	0.221827
393.407	0.218278
403.05	0.222675
412.692	0.200182
422.334	0.276144
431.976	0.310465
441.619	0.321609
451.261	0.266879
460.904	0.224453
470.546	0.188255
480.188	0.181725
489.83	0.231098
499.473	0.189175
509.115	0.156117
518.758	0.154951
528.4	0.185092
538.042	0.169551
547.684	0.195832
557.327	0.168082
566.969	0.163314
576.611	0.17074
586.254	0.153131
595.896	0.146256
605.538	0.13786
615.181	0.0967337
624.823	0.0744041
634.466	0.0938651
644.108	0.170952
653.75	0.208386
663.393	0.157173
673.035	0.103104
682.677	0.0865463
692.319	0.0979668
701.962	0.119081
711.604	0.151675
721.246	0.190292
730.889	0.186961
740.531	0.124169
750.173	0.10459
759.816	0.143699
769.458	0.197981
779.101	0.246323
788.743	0.263988
798.385	0.256086
808.028	0.234621
817.67	0.202288
827.312	0.188505
836.955	0.190386
846.597	0.215374
856.239	0.266334
865.881	0.303138
875.524	0.268847
885.166	0.209635
894.808	0.229397
904.451	0.199361
914.093	0.191268
923.736	0.193032
933.378	0.203748
943.02	0.235723
952.663	0.257831
962.305	0.210189
971.947	0.158254
981.59	0.125079
991.232	0.106183
1000.87	0.0807062
1010.52	0.0582022
1020.16	0.0418266
1029.8	0.0308829
1039.44	0.0258986
1049.09	0.0235204
1058.73	0.0222063
1068.37	0.02137
1078.01	0.0210204
1087.65	0.0205179
1097.3	0.0205427
1106.94	0.0209067
1116.58	0.021502
1126.22	0.0241698
1135.87	0.0323609
1145.51	0.0642952
1155.15	0.131955
1164.79	0.0865791
1174.44	0.0532195
1184.08	0.0200706
1193.72	0.0154564
1203.36	0.0150347
1213.01	0.0183204
1222.65	0.0286319
1232.29	0.0686022
1241.93	0.149144
1251.58	0.100112
1261.22	0.0304538
1270.86	0.0126516
1280.5	0.00871656
1290.14	0.00742982
1299.79	0.00740182
1309.43	0.00774263
1319.07	0.0080615
1328.71	0.0085658
1338.36	0.00908083
1348	0.00956157
1357.64	0.0103326
1367.28	0.0116523
1376.92	0.0132029
1386.57	0.0146903
1396.21	0.0164153
1405.85	0.0180008
1415.49	0.0192577
1425.14	0.0201032
1434.78	0.0207719
1444.42	0.020924
1454.06	0.0213439
1463.71	0.0216137
1473.35	0.022332
1482.99	0.0225055
1492.63	0.0233305
1502.28	0.0232459
1511.92	0.0231424
1521.56	0.023102
1531.2	0.0228617
1540.85	0.0237147
1550.49	0.0239609
1560.13	0.0252477
1569.77	0.0251977
1579.41	0.0255677
1589.06	0.0263542
1598.7	0.026991
1608.34	0.0270955
1617.98	0.0280573
1627.63	0.0288866
1637.27	0.030288
1646.91	0.0315585
1656.55	0.0326276
1666.19	0.0337713
1675.84	0.0346944
1685.48	0.0353314
1695.12	0.0356326
1704.77	0.0359461
1714.41	0.0363633
1724.05	0.0371774
1733.69	0.0387672
1743.33	0.0386304
1752.98	0.0398768
1762.62	0.0410674
1772.26	0.0418755
1781.9	0.0427529
1791.55	0.0440601
1801.19	0.0450614
1810.83	0.0462764
1820.47	0.0478184
1830.12	0.0496153
1839.76	0.0514616
1849.4	0.0529652
1859.04	0.0555168
1868.68	0.0568323
1878.33	0.0577916
1887.97	0.0584189
1897.61	0.0603204
1907.25	0.062359
1916.9	0.0651747
1926.54	0.0675157
1936.18	0.0686545
1945.82	0.0692531
1955.46	0.0689411
1965.11	0.0700107
1974.75	0.0712372
1984.39	0.073424
1994.04	0.0748589
2003.68	0.0738109
2013.32	0.0744475
2022.96	0.0751529
2032.6	0.0766407
2042.25	0.0756661
2051.89	0.0737065
2061.53	0.0706661
2071.17	0.0703146
2080.82	0.0696679
2090.46	0.0683291
2100.1	0.0672249
2109.74	0.0670353
2119.39	0.0656458
2129.03	0.0622641
2138.67	0.0599514
2148.31	0.0591177
2157.95	0.059017
2167.6	0.0583835
2177.24	0.0553498
2186.88	0.0523528
2196.52	0.0475734
2206.17	0.0419722
2215.81	0.0375937
2225.45	0.0329126
2235.09	0.0297602
2244.74	0.0253983
2254.38	0.0227456
2264.02	0.0202765
2273.66	0.0199596
2283.3	0.0219735
2292.95	0.0229045
2302.59	0.0246711
2312.23	0.0274375
2321.87	0.0312037
2331.52	0.0329927
2341.16	0.0357101
2350.8	0.0382319
2360.44	0.0418938
2370.09	0.043402
2379.73	0.0439679
2389.37	0.0443871
2399.01	0.0439482
2408.66	0.0425377
2418.3	0.0418818
2427.94	0.0398084
2437.58	0.0341038
2447.22	0.0268227
2456.87	0.0213507
2466.51	0.0191304
2476.15	0.019644
2485.79	0.0225181
2495.44	0.0253357
2505.08	0.0290253
2514.72	0.0331884
2524.36	0.0379229
2534.01	0.0411855
2543.65	0.0443197
2553.29	0.0459654
2562.93	0.047411
2572.57	0.0489856
2582.22	0.0492968
2591.86	0.0506675
2601.5	0.0508643
2611.14	0.0512279
2620.79	0.0510387
2630.43	0.0506955
2640.07	0.0498415
2649.71	0.0495616
2659.36	0.0481392
2669	0.0472574
2678.64	0.0451369
2688.28	0.0441285
2697.93	0.0432803
2707.57	0.0418285
2717.21	0.0408746
2726.85	0.0401274
2736.49	0.0386047
2746.14	0.0380163
2755.78	0.0369922
2765.42	0.0364748
2775.06	0.0353432
2784.71	0.0350446
2794.35	0.0340016
2803.99	0.0332783
2813.63	0.0327035
2823.28	0.0328769
2832.92	0.0324643
2842.56	0.0316504
2852.2	0.0310482
2861.84	0.0311438
2871.49	0.0312237
2881.13	0.0308914
2890.77	0.0306146
2900.41	0.030179
2910.06	0.0298243
2919.7	0.0290944
2929.34	0.0288918
2938.98	0.0292407
2948.62	0.0291852
2958.27	0.0294371
2967.91	0.0290546
2977.55	0.0288423
2987.2	0.0282906
2996.84	0.0286287
3006.48	0.0285503
3016.12	0.028863
3025.76	0.0289662
3035.41	0.0285479
3045.05	0.028664
3054.69	0.0287017
3064.33	0.0298629
3073.98	0.0292585
3083.62	0.0298552
3093.26	0.0294051
3102.9	0.0293673
3112.55	0.0299786
3122.19	0.0298124
3131.83	0.0302646
3141.47	0.0301844
3151.11	0.0305487
3160.76	0.0311242
3170.4	0.0313252
3180.04	0.0316574
3189.68	0.0314161
3199.33	0.0317271
3208.97	0.0325357
3218.61	0.0322474
3228.25	0.0325102
3237.9	0.0328538
3247.54	0.0326562
3257.18	0.0332419
3266.82	0.0331442
3276.47	0.03352
3286.11	0.0330893
3295.75	0.0341341
3305.39	0.0336181
3315.03	0.0339863
3324.68	0.0332945
3334.32	0.0338444
3343.96	0.0340858
3353.6	0.0346461
3363.25	0.0345647
3372.89	0.0348006
3382.53	0.0356273
3392.17	0.0344097
3401.82	0.0355027
3411.46	0.0345053
3421.1	0.034514
3430.74	0.0350046
3440.39	0.0351812
3450.03	0.0341806
3459.67	0.0349327
3469.31	0.0345733
3478.95	0.0345161
3488.6	0.0352784
3498.24	0.0341721
3507.88	0.0332564
3517.52	0.033752
3527.17	0.0327882
3536.81	0.0334539
3546.45	0.0324095
3556.09	0.0324504
3565.74	0.0328833
3575.38	0.0317769
3585.02	0.0306447
3594.66	0.0305111
3604.3	0.0302281
3613.95	0.029797
3623.59	0.0297764
3633.23	0.0290499
3642.87	0.0280859
3652.52	0.0289564
3662.16	0.0279612
3671.8	0.0284887
3681.44	0.0271773
3691.09	0.0277751
3700.73	0.0278216
3710.37	0.0277272
3720.01	0.027465
3729.66	0.0274234
3739.3	0.0286794
3748.94	0.0287384
3758.58	0.0282672
3768.22	0.0280991
3777.87	0.0279959
3787.51	0.0281097
3797.15	0.0287663
3806.79	0.0284621
3816.44	0.0292893
3826.08	0.0291009
3835.72	0.0293081
3845.36	0.0290383
3855.01	0.0297788
3864.65	0.03001
3874.29	0.0293703
3883.93	0.0287844
3893.57	0.0297361
3903.22	0.0299667
3912.86	0.0293524
3922.5	0.0290114
3932.14	0.0307607
3941.79	0.0297298
3951.43	0.0299472
3961.07	0.0303399
3970.71	0.0300437
3980.36	0.0305774
3990	0.0307178
3999.64	0.0305944
