Measurement: Infrared, Infrared Data Processed
Mineral: Weddellite
Rruff sample: R050242
Ideal chemistry: Ca(C_2_)^6+^O_4_2H_2_O
Locality: Biggs, Wasco County, Oregon, USA
Source: Marcus Origlieri
Description: Isolated yellowish brown crystal
Measured chemistry: Ca_1.00_(C_2_O_4_)Â·2H_2_O ; C not measured
x	intensity
399.193	0.045465
408.835	0.0463829
418.477	0.048025
428.12	0.0507413
437.762	0.0515538
447.404	0.0528968
457.047	0.0551716
466.689	0.0566261
476.331	0.0616584
485.974	0.0673144
495.616	0.0729853
505.258	0.0737504
514.901	0.0791687
524.543	0.0658319
534.185	0.0542606
543.828	0.051382
553.47	0.0512489
563.112	0.0523579
572.755	0.0541576
582.397	0.0561531
592.039	0.0579842
601.682	0.0576644
611.324	0.0562972
620.966	0.0538162
630.609	0.0516491
640.251	0.0491546
649.893	0.048094
659.536	0.0470687
669.178	0.0450043
678.82	0.0415866
688.463	0.0388056
698.105	0.0367928
707.747	0.0364516
717.39	0.0362552
727.032	0.0368387
736.674	0.0381838
746.317	0.0406883
755.959	0.0444163
765.601	0.0496398
775.244	0.0606673
784.886	0.0558732
794.528	0.0345824
804.171	0.0244988
813.813	0.0187445
823.455	0.0158057
833.098	0.0140509
842.74	0.0127477
852.382	0.0117598
862.025	0.0109422
871.667	0.0104351
881.309	0.0101578
890.952	0.00910664
900.594	0.00770862
910.236	0.0106478
919.879	0.010452
929.521	0.00938932
939.163	0.00946872
948.806	0.00981412
958.448	0.00937524
968.09	0.00884468
977.733	0.00845735
987.375	0.00829993
997.017	0.00816245
1006.66	0.00809061
1016.3	0.00811473
1025.94	0.00821682
1035.59	0.00832187
1045.23	0.00825149
1054.87	0.00792864
1064.51	0.00799864
1074.16	0.00774167
1083.8	0.00729798
1093.44	0.00713983
1103.08	0.00715668
1112.72	0.00722159
1122.37	0.0070406
1132.01	0.00693193
1141.65	0.00669048
1151.3	0.00688744
1160.94	0.00717563
1170.58	0.00692739
1180.22	0.00696392
1189.86	0.0071699
1199.51	0.00732292
1209.15	0.00766104
1218.79	0.00805673
1228.43	0.00864931
1238.08	0.00935322
1247.72	0.0103605
1257.36	0.0117363
1267	0.0138484
1276.64	0.0168626
1286.29	0.0226476
1295.93	0.0369896
1305.57	0.0815501
1315.21	0.160727
1324.86	0.13101
1334.5	0.0794645
1344.14	0.0418697
1353.78	0.0330357
1363.43	0.0323228
1373.07	0.0290845
1382.71	0.024167
1392.35	0.0182722
1401.99	0.0135202
1411.64	0.0114966
1421.28	0.0112045
1430.92	0.011193
1440.57	0.0118955
1450.21	0.0134294
1459.85	0.0152353
1469.49	0.0170933
1479.13	0.0172962
1488.78	0.0168783
1498.42	0.0174527
1508.06	0.0193876
1517.7	0.022126
1527.35	0.0260235
1536.99	0.0314886
1546.63	0.0388735
1556.27	0.0500956
1565.91	0.066697
1575.56	0.0914266
1585.2	0.120913
1594.84	0.174124
1604.48	0.233459
1614.13	0.241787
1623.77	0.21864
1633.41	0.197364
1643.05	0.183518
1652.7	0.156981
1662.34	0.131032
1671.98	0.100668
1681.62	0.0684159
1691.27	0.0408924
1700.91	0.0224601
1710.55	0.0131799
1720.19	0.00833556
1729.84	0.00644766
1739.48	0.00402099
1749.12	0.00202104
1758.76	0.00133099
1768.4	0.0010637
1778.05	0.00035769
1787.69	0.00016439
1797.33	9.94596e-05
1806.97	-0.000429945
1816.62	-0.000295908
1826.26	-7.0069e-05
1835.9	-0.00054656
1845.54	-0.000456785
1855.18	-0.000383419
1864.83	-0.00024366
1874.47	-0.000588578
1884.11	-0.000315764
1893.75	-0.000162375
1903.4	-0.000332423
1913.04	0.000104912
1922.68	-0.000678705
1932.32	-0.00060073
1941.97	-0.00110749
1951.61	-0.0014162
1961.25	-0.0029207
1970.89	-0.00145536
1980.54	-2.93987e-05
1990.18	-0.00114006
1999.82	-0.00169611
2009.46	-0.00133354
2019.11	-0.0015482
2028.75	-0.000967982
2038.39	-0.000966781
2048.03	-0.00111389
2057.67	0.000296969
2067.32	-0.00069636
2076.96	-0.000114093
2086.6	-0.000563917
2096.24	-0.000454691
2105.89	-0.000364161
2115.53	-5.66358e-05
2125.17	-0.000398958
2134.81	-0.00061519
2144.45	-0.000820175
2154.1	-0.000819014
2163.74	0.00125605
2173.38	6.5462e-05
2183.02	0.00192911
2192.67	0.00201189
2202.31	0.0012571
2211.95	0.000705977
2221.59	0.00188037
2231.24	0.00123171
2240.88	0.000787584
2250.52	0.00166438
2260.16	0.00156897
2269.8	0.00202019
2279.45	0.00146692
2289.09	0.00172116
2298.73	0.00113514
2308.38	0.00102076
2318.02	0.00114682
2327.66	0.000125644
2337.3	6.34288e-05
2346.94	0.000110042
2356.59	-0.000515454
2366.23	-0.000851257
2375.87	-0.000572073
2385.51	-0.00113007
2395.16	-0.000617009
2404.8	-0.000441736
2414.44	-0.000426794
2424.08	-0.000760272
2433.72	-0.000756125
2443.37	-0.000518656
2453.01	-0.000603319
2462.65	-0.000885946
2472.29	-0.00111513
2481.94	-0.000284172
2491.58	-0.000760157
2501.22	-0.00049366
2510.86	-0.000680988
2520.51	-0.000567752
2530.15	-0.000806774
2539.79	-0.000239307
2549.43	-0.000819845
2559.07	-0.000624406
2568.72	-0.000604132
2578.36	-0.000618182
2588	-0.000683827
2597.64	-0.00047303
2607.29	-0.00125179
2616.93	-0.00213001
2626.57	-0.00248779
2636.21	-0.0026531
2645.86	-0.00166037
2655.5	-0.00165025
2665.14	-0.00134396
2674.78	-0.00091391
2684.43	-0.00112978
2694.07	-0.000808822
2703.71	-0.000441302
2713.35	-0.00052088
2722.99	-0.00040693
2732.64	5.12486e-05
2742.28	0.000379594
2751.92	0.000573036
2761.56	0.000753296
2771.21	0.00138831
2780.85	0.00189452
2790.49	0.00203593
2800.13	0.00233268
2809.78	0.00263252
2819.42	0.00302602
2829.06	0.00279526
2838.7	0.00352562
2848.34	0.00424538
2857.99	0.00497462
2867.63	0.00531713
2877.27	0.00490625
2886.91	0.00521629
2896.56	0.00636103
2906.2	0.00756583
2915.84	0.00882231
2925.48	0.0112406
2935.13	0.0114278
2944.77	0.0103807
2954.41	0.011917
2964.05	0.0126745
2973.7	0.0115584
2983.34	0.0124881
2992.98	0.0133861
3002.62	0.0148568
3012.26	0.0163887
3021.91	0.0178299
3031.55	0.020005
3041.19	0.0209461
3050.83	0.0233934
3060.48	0.0254653
3070.12	0.0253628
3079.76	0.0250412
3089.4	0.0255072
3099.05	0.0259544
3108.69	0.0251379
3118.33	0.0260202
3127.97	0.0256365
3137.61	0.0257497
3147.26	0.0264996
3156.9	0.0263362
3166.54	0.0281643
3176.18	0.0275945
3185.83	0.0285423
3195.47	0.0292862
3205.11	0.0303146
3214.75	0.0314244
3224.4	0.0329471
3234.04	0.0343887
3243.68	0.0356506
3253.32	0.0360789
3262.97	0.0371131
3272.61	0.0376497
3282.25	0.0371856
3291.89	0.0372577
3301.53	0.0387682
3311.18	0.0406183
3320.82	0.0425801
3330.46	0.0441728
3340.1	0.0436676
3349.75	0.0441542
3359.39	0.0418032
3369.03	0.0408421
3378.67	0.0404705
3388.32	0.0406615
3397.96	0.0416048
3407.6	0.0436704
3417.24	0.0462384
3426.89	0.0486189
3436.53	0.048125
3446.17	0.0476325
3455.81	0.0484695
3465.45	0.0482773
3475.1	0.0484543
3484.74	0.0479756
3494.38	0.0455729
3504.02	0.0417444
3513.67	0.0384683
3523.31	0.0345543
3532.95	0.0320489
3542.59	0.0289135
3552.24	0.0250515
3561.88	0.0240597
3571.52	0.021301
3581.16	0.0186351
3590.8	0.0171914
3600.45	0.0154072
3610.09	0.0127816
3619.73	0.0100068
3629.37	0.00635122
3639.02	0.004039
3648.66	0.000645105
3658.3	-0.00039717
3667.94	-0.00227312
3677.59	-0.00234322
3687.23	-0.00305995
3696.87	-0.00309326
3706.51	-0.00338334
3716.16	-0.00429636
3725.8	-0.00403526
3735.44	-0.00397323
3745.08	-0.00361035
3754.72	-0.00479452
3764.37	-0.00453669
3774.01	-0.00348239
3783.65	-0.00458719
3793.29	-0.0037095
3802.94	-0.00417851
3812.58	-0.00395358
3822.22	-0.00424277
3831.86	-0.00352336
3841.51	-0.00373912
3851.15	-0.004149
3860.79	-0.00493161
3870.43	-0.00383432
3880.07	-0.00439034
3889.72	-0.00427065
3899.36	-0.00424605
3909	-0.00352178
3918.64	-0.00442803
3928.29	-0.00468661
3937.93	-0.00456421
3947.57	-0.00477379
3957.21	-0.00411795
3966.86	-0.00366034
3976.5	-0.00354696
3986.14	-0.00368063
3995.78	-0.00380699
