Measurement: Infrared, Infrared Data Processed
Mineral: Wendwilsonite
Rruff sample: R050398
Ideal chemistry: Ca_2_Mg(As^5+^O_4_)_2_2H_2_O
Locality: Bou Azzer, Morocco
Source: Marcus Origlieri
Description: Stout prismatic red crystals
Measured chemistry: Ca_2.00_(Mg_0.54_Co_0.31_Zn_0.15_)(As_1.00_O_4_)_2_Â·2H_2_O
x	intensity
399.193	0.31238
408.835	0.259582
418.477	0.225318
428.12	0.185524
437.762	0.148887
447.404	0.138964
457.047	0.141441
466.689	0.111891
476.331	0.0865439
485.974	0.0647053
495.616	0.0470595
505.258	0.0345474
514.901	0.0294958
524.543	0.0278857
534.185	0.028289
543.828	0.0286469
553.47	0.0305731
563.112	0.032635
572.755	0.0355739
582.397	0.0400574
592.039	0.0441946
601.682	0.0493053
611.324	0.0571101
620.966	0.0675293
630.609	0.0806435
640.251	0.0967681
649.893	0.115977
659.536	0.135852
669.178	0.147614
678.82	0.149017
688.463	0.148026
698.105	0.161493
707.747	0.196572
717.39	0.246093
727.032	0.274755
736.674	0.265571
746.317	0.247604
755.959	0.247547
765.601	0.279088
775.244	0.352235
784.886	0.40671
794.528	0.375532
804.171	0.321631
813.813	0.242762
823.455	0.173776
833.098	0.174217
842.74	0.190917
852.382	0.161015
862.025	0.18904
871.667	0.194816
881.309	0.146965
890.952	0.101421
900.594	0.0630077
910.236	0.0396856
919.879	0.0321344
929.521	0.0302761
939.163	0.032106
948.806	0.0378739
958.448	0.0500895
968.09	0.0731566
977.733	0.104279
987.375	0.10728
997.017	0.0848801
1006.66	0.0664318
1016.3	0.049036
1025.94	0.0306543
1035.59	0.0183734
1045.23	0.00727664
1054.87	0.0086018
1064.51	0.0118947
1074.16	0.0108434
1083.8	0.0078001
1093.44	0.00629441
1103.08	0.00932415
1112.72	0.00995815
1122.37	0.00977574
1132.01	0.0094016
1141.65	0.00919332
1151.3	0.00897738
1160.94	0.00886563
1170.58	0.00933353
1180.22	0.0091095
1189.86	0.00937266
1199.51	0.00903872
1209.15	0.00943429
1218.79	0.00975903
1228.43	0.00935776
1238.08	0.00937301
1247.72	0.00992897
1257.36	0.00995606
1267	0.0102395
1276.64	0.0111243
1286.29	0.0115008
1295.93	0.0117387
1305.57	0.0118359
1315.21	0.0126161
1324.86	0.0134097
1334.5	0.0146829
1344.14	0.0155967
1353.78	0.0171844
1363.43	0.0180605
1373.07	0.0193678
1382.71	0.0199989
1392.35	0.0223466
1401.99	0.0259806
1411.64	0.0252883
1421.28	0.0256888
1430.92	0.0271752
1440.57	0.0272342
1450.21	0.0277828
1459.85	0.0270188
1469.49	0.0261524
1479.13	0.0261975
1488.78	0.0268159
1498.42	0.0280563
1508.06	0.0299642
1517.7	0.0320914
1527.35	0.035194
1536.99	0.0385861
1546.63	0.0432207
1556.27	0.0477967
1565.91	0.0521933
1575.56	0.0569627
1585.2	0.0635671
1594.84	0.0700167
1604.48	0.0726074
1614.13	0.0713255
1623.77	0.067534
1633.41	0.0642876
1643.05	0.063566
1652.7	0.0648138
1662.34	0.0674864
1671.98	0.0706925
1681.62	0.0724889
1691.27	0.0704056
1700.91	0.0652993
1710.55	0.0582269
1720.19	0.0527482
1729.84	0.0466434
1739.48	0.0404258
1749.12	0.0344521
1758.76	0.0318693
1768.4	0.0296702
1778.05	0.0279777
1787.69	0.0270471
1797.33	0.0270875
1806.97	0.0274087
1816.62	0.0277703
1826.26	0.0281568
1835.9	0.0293896
1845.54	0.0298808
1855.18	0.0296947
1864.83	0.030442
1874.47	0.0308785
1884.11	0.031506
1893.75	0.0325386
1903.4	0.0332077
1913.04	0.0358451
1922.68	0.0371266
1932.32	0.040815
1941.97	0.0425721
1951.61	0.0486753
1961.25	0.0504716
1970.89	0.0447311
1980.54	0.0460307
1990.18	0.040638
1999.82	0.0387743
2009.46	0.0398491
2019.11	0.0344053
2028.75	0.0360988
2038.39	0.0394901
2048.03	0.0418193
2057.67	0.0404171
2067.32	0.0426649
2076.96	0.042623
2086.6	0.0418572
2096.24	0.0443033
2105.89	0.0429625
2115.53	0.0457012
2125.17	0.0452286
2134.81	0.0454056
2144.45	0.0436182
2154.1	0.0483107
2163.74	0.0544914
2173.38	0.0536159
2183.02	0.0568786
2192.67	0.0543672
2202.31	0.0575275
2211.95	0.061293
2221.59	0.061442
2231.24	0.0679575
2240.88	0.0689128
2250.52	0.0684336
2260.16	0.0732513
2269.8	0.0747763
2279.45	0.0772658
2289.09	0.0792871
2298.73	0.0773
2308.38	0.0782298
2318.02	0.0781004
2327.66	0.0773606
2337.3	0.076922
2346.94	0.0747878
2356.59	0.0747206
2366.23	0.0743566
2375.87	0.0738879
2385.51	0.0756429
2395.16	0.0767429
2404.8	0.0792641
2414.44	0.0803261
2424.08	0.0806008
2433.72	0.0847548
2443.37	0.0854754
2453.01	0.0852349
2462.65	0.0875842
2472.29	0.0872164
2481.94	0.0879507
2491.58	0.0888138
2501.22	0.0917485
2510.86	0.089884
2520.51	0.0911013
2530.15	0.0905562
2539.79	0.0915117
2549.43	0.0923475
2559.07	0.0918968
2568.72	0.0927007
2578.36	0.0928805
2588	0.0939578
2597.64	0.0930112
2607.29	0.093128
2616.93	0.0930482
2626.57	0.0940225
2636.21	0.0907376
2645.86	0.090306
2655.5	0.0897891
2665.14	0.087771
2674.78	0.0858844
2684.43	0.08523
2694.07	0.0833786
2703.71	0.0835017
2713.35	0.0836559
2722.99	0.0840963
2732.64	0.0838588
2742.28	0.0823402
2751.92	0.0813498
2761.56	0.0819993
2771.21	0.0798915
2780.85	0.0796251
2790.49	0.0769791
2800.13	0.0774599
2809.78	0.0773817
2819.42	0.0762808
2829.06	0.0746484
2838.7	0.0751574
2848.34	0.0741603
2857.99	0.0710478
2867.63	0.0708379
2877.27	0.0673514
2886.91	0.0685253
2896.56	0.0653791
2906.2	0.067337
2915.84	0.0675105
2925.48	0.0636768
2935.13	0.0667164
2944.77	0.0653879
2954.41	0.0659816
2964.05	0.061752
2973.7	0.0549703
2983.34	0.0630072
2992.98	0.0663729
3002.62	0.0691894
3012.26	0.0680682
3021.91	0.0681106
3031.55	0.0682705
3041.19	0.07005
3050.83	0.068699
3060.48	0.0705439
3070.12	0.0703297
3079.76	0.0709291
3089.4	0.071166
3099.05	0.0691951
3108.69	0.0692532
3118.33	0.0696364
3127.97	0.0670055
3137.61	0.0660937
3147.26	0.063643
3156.9	0.0626621
3166.54	0.0577104
3176.18	0.0602123
3185.83	0.056822
3195.47	0.0549251
3205.11	0.0526602
3214.75	0.0524348
3224.4	0.0488799
3234.04	0.0480839
3243.68	0.0486826
3253.32	0.0503717
3262.97	0.0473326
3272.61	0.0477022
3282.25	0.0474783
3291.89	0.0464279
3301.53	0.0456355
3311.18	0.0433108
3320.82	0.0451803
3330.46	0.0394267
3340.1	0.0383762
3349.75	0.040563
3359.39	0.0382845
3369.03	0.034897
3378.67	0.0342335
3388.32	0.0316039
3397.96	0.029558
3407.6	0.0282432
3417.24	0.0273586
3426.89	0.031561
3436.53	0.0262081
3446.17	0.0262298
3455.81	0.0284071
3465.45	0.0253858
3475.1	0.0268637
3484.74	0.0256255
3494.38	0.0245439
3504.02	0.0251355
3513.67	0.0253221
3523.31	0.0316278
3532.95	0.0313722
3542.59	0.0258195
3552.24	0.0288282
3561.88	0.025435
3571.52	0.0250144
3581.16	0.0239489
3590.8	0.0258565
3600.45	0.0278774
3610.09	0.0269489
3619.73	0.0249193
3629.37	0.0276874
3639.02	0.0256466
3648.66	0.0229145
3658.3	0.0247632
3667.94	0.0322904
3677.59	0.0271396
3687.23	0.0226103
3696.87	0.0269556
3706.51	0.0317757
3716.16	0.0302619
3725.8	0.0233191
3735.44	0.0285178
3745.08	0.0272115
3754.72	0.0223763
3764.37	0.0322045
3774.01	0.0296845
3783.65	0.0306519
3793.29	0.0308836
3802.94	0.0286156
3812.58	0.0278302
3822.22	0.0351222
3831.86	0.0323191
3841.51	0.02651
3851.15	0.0253446
3860.79	0.0315233
3870.43	0.0274188
3880.07	0.0263069
3889.72	0.0311457
3899.36	0.0326337
3909	0.0307488
3918.64	0.0272288
3928.29	0.035923
3937.93	0.0328248
3947.57	0.0300182
3957.21	0.0299442
3966.86	0.0326032
3976.5	0.034505
3986.14	0.0367579
3995.78	0.034806
