Measurement: Infrared, Infrared Data Processed
Mineral: Whewellite
Rruff sample: R050240
Ideal chemistry: Ca(C_2_)^6+^O_4_H_2_O
Locality: Huron River, Milan, Ohio, USA
Source: Marcus Origlieri
Description: White fragment
Measured chemistry: Ca_1.00_C_2_O_4_Â·H_2_O
x	intensity
50.1401	0.0282516
52.0686	0.0200739
53.9971	0.0193986
55.9255	0.0157806
57.854	0.0140483
59.7825	0.0151015
61.7109	0.016436
63.6394	0.0215434
65.5679	0.0174142
67.4963	0.0171163
69.4248	0.0183857
71.3533	0.0169862
73.2817	0.0157329
75.2102	0.0172265
77.1387	0.018937
79.0671	0.0206757
80.9956	0.0217
82.9241	0.0225422
84.8525	0.0227454
86.781	0.0224429
88.7095	0.0232149
90.6379	0.0248142
92.5664	0.0258281
94.4948	0.0274791
96.4233	0.0285923
98.3518	0.0296013
100.28	0.0308561
102.209	0.0307669
104.137	0.0289056
106.066	0.0278117
107.994	0.0275402
109.923	0.0271608
111.851	0.0281131
113.779	0.0293379
115.708	0.0298215
117.636	0.0310412
119.565	0.031846
121.493	0.0320501
123.422	0.0323608
125.35	0.0336165
127.279	0.0352529
129.207	0.0367859
131.136	0.0384988
133.064	0.0404749
134.993	0.0411188
136.921	0.0425975
138.85	0.0442034
140.778	0.0444899
142.707	0.0440078
144.635	0.0442349
146.563	0.0442368
148.492	0.0452943
150.42	0.0462216
152.349	0.0469836
154.277	0.0483217
156.206	0.0502917
158.134	0.05177
160.063	0.0535149
161.991	0.0552036
163.92	0.0576775
165.848	0.0599111
167.777	0.0609931
169.705	0.0596089
171.633	0.0551493
173.562	0.0511552
175.49	0.0503011
177.419	0.0501118
179.347	0.0500771
181.276	0.0508458
183.204	0.0515353
185.133	0.0508586
187.061	0.0490905
188.99	0.0482578
190.918	0.0499911
192.847	0.0528086
194.775	0.054712
196.704	0.0549655
198.632	0.0553911
200.56	0.0559236
202.489	0.057894
204.417	0.0597367
206.346	0.0611426
208.274	0.0627069
210.203	0.0642391
212.131	0.0653505
214.06	0.0664254
215.988	0.0678336
217.917	0.0705693
219.845	0.0734071
221.774	0.0763807
223.702	0.0788409
225.631	0.0806463
227.559	0.0818646
229.488	0.0836809
231.416	0.0856157
233.344	0.0878973
235.273	0.0891483
237.201	0.0898763
239.13	0.0908871
241.058	0.0915753
242.987	0.0915221
244.915	0.0912537
246.844	0.0913379
248.772	0.0912011
250.701	0.0904616
252.629	0.0911742
254.558	0.0916812
256.486	0.0919569
258.414	0.09217
260.343	0.0920182
262.271	0.0910713
264.2	0.0901522
266.128	0.0892031
268.057	0.0878738
269.985	0.0867684
271.914	0.0856731
273.842	0.0839362
275.771	0.0822593
277.699	0.0799906
279.628	0.0770919
281.556	0.0745406
283.485	0.0731758
285.413	0.0718671
287.341	0.0703837
289.27	0.0694858
291.198	0.0689872
293.127	0.0682515
295.055	0.0673995
296.984	0.0662665
298.912	0.0655789
300.841	0.0649853
302.769	0.0642606
304.698	0.0630929
306.626	0.0616399
308.555	0.0601967
310.483	0.0585312
312.411	0.0562841
314.34	0.0540614
316.269	0.05193
318.197	0.0499752
320.125	0.0479064
322.054	0.0456516
323.982	0.0433339
325.911	0.0410835
327.839	0.0393437
329.768	0.0375571
331.696	0.035417
333.625	0.0336199
335.553	0.0322065
337.482	0.0310171
339.41	0.0304389
341.339	0.0302139
343.267	0.0296135
345.195	0.0291041
347.124	0.0289885
349.052	0.0290301
350.981	0.0291349
352.909	0.0292227
354.838	0.0292881
356.766	0.0292476
358.695	0.0290141
360.623	0.0284806
362.552	0.0282134
364.48	0.02848
366.409	0.0287048
368.337	0.0287698
370.265	0.0290126
372.194	0.0292029
374.122	0.0293108
376.051	0.0296492
377.979	0.0297646
379.908	0.0296346
381.836	0.0294945
383.765	0.0295828
385.693	0.0295436
387.622	0.0296241
389.55	0.0298226
391.479	0.0298327
393.407	0.0301408
395.336	0.0306262
397.264	0.0311206
399.192	0.0318178
401.121	0.0324373
403.049	0.0329962
404.978	0.0333464
406.906	0.0334315
408.835	0.0335281
410.763	0.0337529
412.692	0.0343461
414.62	0.0354265
416.549	0.036767
418.477	0.0379948
420.406	0.0383141
422.334	0.0380369
424.262	0.0374485
426.191	0.0368157
428.12	0.0362872
430.048	0.0363837
431.976	0.0367083
433.905	0.0370838
435.833	0.037523
437.762	0.0378838
439.69	0.0384205
441.619	0.0391588
443.547	0.0400217
445.476	0.0407028
447.404	0.0410754
449.333	0.0414541
451.261	0.0424172
453.19	0.0436695
455.118	0.0443355
457.046	0.044859
458.975	0.0452071
460.903	0.0454678
462.832	0.0457921
464.76	0.0464721
466.689	0.0472776
468.617	0.0484059
470.546	0.0489732
472.474	0.0499419
474.403	0.0515915
476.331	0.0533214
478.26	0.054759
480.188	0.0566241
482.116	0.0590439
484.045	0.0618794
485.974	0.0646325
487.902	0.0676943
489.83	0.0715699
491.759	0.0756011
493.687	0.0790682
495.616	0.0824601
497.544	0.0860876
499.473	0.0895796
501.401	0.0928788
503.33	0.0961876
505.258	0.0996156
507.187	0.103658
509.115	0.107492
511.043	0.110219
512.972	0.110995
514.9	0.109708
516.829	0.106779
518.757	0.102183
520.686	0.0951367
522.614	0.0868455
524.543	0.0788753
526.471	0.0723299
528.4	0.0671194
530.328	0.0637737
532.257	0.0609638
534.185	0.0586249
536.114	0.0574259
538.042	0.0571259
539.971	0.0570493
541.899	0.0571704
543.827	0.0575925
545.756	0.0581179
547.684	0.058653
549.613	0.0592164
551.541	0.0601953
553.47	0.061291
555.398	0.0622001
557.327	0.063432
559.255	0.0648129
561.184	0.0657407
563.112	0.0662938
565.041	0.0671661
566.969	0.068004
568.898	0.0696125
570.826	0.0710584
572.755	0.0719536
574.683	0.0728889
576.611	0.0742846
578.54	0.074969
580.468	0.0753696
582.397	0.0762934
584.325	0.0769614
586.254	0.0773049
588.182	0.0776731
590.111	0.0777051
592.039	0.0776889
593.968	0.0778286
595.896	0.0778068
597.824	0.0772696
599.753	0.0761664
601.682	0.0749
603.61	0.0740162
605.538	0.0729597
607.467	0.0729306
609.395	0.0728536
611.324	0.0724261
613.252	0.0730497
615.181	0.0730662
617.109	0.0724087
619.038	0.0726549
620.966	0.0738879
622.894	0.0750645
624.823	0.0763101
626.751	0.0780723
628.68	0.0805154
630.608	0.0826249
632.537	0.0845539
634.465	0.086074
636.394	0.0874836
638.322	0.0892802
640.251	0.0909023
642.179	0.0920806
644.108	0.0936392
646.036	0.095263
647.965	0.0961869
649.893	0.0974978
651.822	0.0988378
653.75	0.100125
655.678	0.101035
657.607	0.101674
659.535	0.10198
661.464	0.102232
663.392	0.102274
665.321	0.101981
667.249	0.101423
669.178	0.100198
671.106	0.0988363
673.035	0.0971819
674.963	0.0954616
676.892	0.0940884
678.82	0.0922468
680.749	0.0895037
682.677	0.087665
684.606	0.0861323
686.534	0.0839658
688.462	0.0819942
690.391	0.0798834
692.319	0.0784239
694.248	0.077059
696.176	0.0760186
698.105	0.0742453
700.033	0.072749
