Measurement: Infrared, Infrared Data Processed
Mineral: Whewellite
Rruff sample: R050526
Ideal chemistry: Ca(C_2_)^6+^O_4_H_2_O
Locality: Dresden, Saxony, Germany
Source: University of Arizona Mineral Museum
Description: Coating of colorless fragments
Measured chemistry: Ca_1.00_C_2.00_O_4_Â·H_2_O ; C not measured but estimated by difference.
x	intensity
399.193	0.0575374
408.835	0.0489103
418.477	0.05907
428.12	0.0571339
437.762	0.0584571
447.404	0.069572
457.047	0.0829
466.689	0.0808345
476.331	0.096432
485.974	0.143945
495.616	0.228028
505.258	0.318932
514.901	0.334975
524.543	0.18155
534.185	0.108445
543.828	0.099957
553.47	0.107073
563.112	0.121882
572.755	0.137416
582.397	0.151205
592.039	0.158681
601.682	0.152065
611.324	0.138572
620.966	0.132738
630.609	0.142963
640.251	0.166206
649.893	0.190578
659.536	0.201112
669.178	0.184511
678.82	0.148853
688.463	0.114222
698.105	0.0857604
707.747	0.0672945
717.39	0.0562722
727.032	0.0504677
736.674	0.0501045
746.317	0.0575931
755.959	0.0889029
765.601	0.13854
775.244	0.279618
784.886	0.160654
794.528	0.0348113
804.171	0.0158489
813.813	0.0116064
823.455	0.0107509
833.098	0.0113549
842.74	0.0130817
852.382	0.0155145
862.025	0.0210428
871.667	0.0239662
881.309	0.0359191
890.952	0.0295542
900.594	0.0173881
910.236	0.0160354
919.879	0.0173988
929.521	0.0214992
939.163	0.0259996
948.806	0.0301721
958.448	0.0239947
968.09	0.0177012
977.733	0.0130416
987.375	0.011007
997.017	0.0103115
1006.66	0.0111483
1016.3	0.0111209
1025.94	0.0110295
1035.59	0.0117362
1045.23	0.0109856
1054.87	0.010932
1064.51	0.0106183
1074.16	0.0106904
1083.8	0.0109189
1093.44	0.0112365
1103.08	0.0117824
1112.72	0.0115524
1122.37	0.0115821
1132.01	0.0114539
1141.65	0.0114208
1151.3	0.0116827
1160.94	0.011937
1170.58	0.0122516
1180.22	0.0127578
1189.86	0.0134683
1199.51	0.0139608
1209.15	0.0143285
1218.79	0.0148583
1228.43	0.0156946
1238.08	0.0169492
1247.72	0.0182465
1257.36	0.0209462
1267	0.0247396
1276.64	0.032387
1286.29	0.0499894
1295.93	0.0993325
1305.57	0.257029
1315.21	0.374121
1324.86	0.176318
1334.5	0.0887361
1344.14	0.0453157
1353.78	0.0390752
1363.43	0.0460813
1373.07	0.0494675
1382.71	0.0499199
1392.35	0.0334298
1401.99	0.0198592
1411.64	0.0161745
1421.28	0.0159541
1430.92	0.0173203
1440.57	0.0185731
1450.21	0.0208735
1459.85	0.0241858
1469.49	0.0244672
1479.13	0.0285174
1488.78	0.0345966
1498.42	0.0338226
1508.06	0.0386576
1517.7	0.0461068
1527.35	0.0562021
1536.99	0.0686269
1546.63	0.0867894
1556.27	0.11388
1565.91	0.148798
1575.56	0.191568
1585.2	0.235347
1594.84	0.317084
1604.48	0.400519
1614.13	0.393962
1623.77	0.331724
1633.41	0.259798
1643.05	0.203147
1652.7	0.162207
1662.34	0.132469
1671.98	0.0941588
1681.62	0.0605451
1691.27	0.0363167
1700.91	0.0217098
1710.55	0.0144158
1720.19	0.0110573
1729.84	0.00783103
1739.48	0.00448591
1749.12	0.00362845
1758.76	0.00400517
1768.4	0.00354175
1778.05	0.00272923
1787.69	0.00277848
1797.33	0.00307964
1806.97	0.00320446
1816.62	0.00238063
1826.26	0.00312382
1835.9	0.00261961
1845.54	0.00266158
1855.18	0.00255045
1864.83	0.00203195
1874.47	0.00250725
1884.11	0.00282336
1893.75	0.00258848
1903.4	0.00362437
1913.04	0.00325613
1922.68	0.00168814
1932.32	0.00263641
1941.97	0.00147132
1951.61	0.000474474
1961.25	0.000968925
1970.89	0.000918186
1980.54	0.00167624
1990.18	0.00233922
1999.82	5.16894e-06
2009.46	0.00113533
2019.11	0.00166662
2028.75	3.88348e-05
2038.39	0.00206761
2048.03	0.00248759
2057.67	0.00113696
2067.32	0.00163366
2076.96	0.00164121
2086.6	0.00146284
2096.24	0.00144246
2105.89	0.00270029
2115.53	0.001911
2125.17	0.00121125
2134.81	0.000422134
2144.45	0.00187868
2154.1	-0.00147748
2163.74	0.00219354
2173.38	0.00377539
2183.02	0.00156765
2192.67	0.00225675
2202.31	0.00258178
2211.95	0.00245157
2221.59	0.0018484
2231.24	0.00165857
2240.88	0.00258374
2250.52	0.00225262
2260.16	0.00306132
2269.8	0.00334631
2279.45	0.0043886
2289.09	0.00473794
2298.73	0.00435891
2308.38	0.00384528
2318.02	0.00433572
2327.66	0.00337379
2337.3	0.00351763
2346.94	0.00301731
2356.59	0.00217992
2366.23	0.00217399
2375.87	0.00194424
2385.51	0.00220802
2395.16	0.00157749
2404.8	0.00120065
2414.44	0.00133626
2424.08	0.00260734
2433.72	0.00224762
2443.37	0.00227473
2453.01	0.00243757
2462.65	0.00229965
2472.29	0.00204843
2481.94	0.00244457
2491.58	0.00267728
2501.22	0.00225602
2510.86	0.00234252
2520.51	0.0021356
2530.15	0.00258554
2539.79	0.0022777
2549.43	0.0024724
2559.07	0.00187579
2568.72	0.00235125
2578.36	0.00263628
2588	0.0016924
2597.64	0.00171672
2607.29	0.000140611
2616.93	0.000332926
2626.57	-0.00023648
2636.21	0.000683198
2645.86	0.0012473
2655.5	0.0017267
2665.14	0.0015072
2674.78	0.00255831
2684.43	0.00272969
2694.07	0.0024474
2703.71	0.0027551
2713.35	0.00330447
2722.99	0.00313313
2732.64	0.0033762
2742.28	0.00336478
2751.92	0.00392432
2761.56	0.00418222
2771.21	0.00483758
2780.85	0.00483211
2790.49	0.00503022
2800.13	0.005401
2809.78	0.00608454
2819.42	0.00544963
2829.06	0.00540352
2838.7	0.00609825
2848.34	0.00553773
2857.99	0.00575339
2867.63	0.00596805
2877.27	0.00648807
2886.91	0.00704464
2896.56	0.00726082
2906.2	0.00734929
2915.84	0.00838531
2925.48	0.00993615
2935.13	0.0111645
2944.77	0.0123772
2954.41	0.0134871
2964.05	0.0147167
2973.7	0.0163033
2983.34	0.0177876
2992.98	0.0210825
3002.62	0.0232821
3012.26	0.0253251
3021.91	0.028152
3031.55	0.0303247
3041.19	0.0323102
3050.83	0.034284
3060.48	0.0338147
3070.12	0.0311294
3079.76	0.0261128
3089.4	0.0224627
3099.05	0.0204608
3108.69	0.0179401
3118.33	0.0169496
3127.97	0.0161668
3137.61	0.0150028
3147.26	0.0140749
3156.9	0.0140158
3166.54	0.0121271
3176.18	0.0121672
3185.83	0.0127541
3195.47	0.0126685
3205.11	0.0130048
3214.75	0.0140071
3224.4	0.0155236
3234.04	0.0168546
3243.68	0.0176053
3253.32	0.0197957
3262.97	0.0184937
3272.61	0.0181084
3282.25	0.0176155
3291.89	0.0180051
3301.53	0.0185764
3311.18	0.0219402
3320.82	0.0238653
3330.46	0.0272124
3340.1	0.0262674
3349.75	0.0232339
3359.39	0.0201656
3369.03	0.0176838
3378.67	0.0172089
3388.32	0.018777
3397.96	0.0215445
3407.6	0.0263775
3417.24	0.0314193
3426.89	0.0341927
3436.53	0.0304742
3446.17	0.0280411
3455.81	0.0278125
3465.45	0.0272631
3475.1	0.0272657
3484.74	0.027739
3494.38	0.0253018
3504.02	0.0199489
3513.67	0.0171037
3523.31	0.0124646
3532.95	0.00936794
3542.59	0.00850373
3552.24	0.00671308
3561.88	0.00543193
3571.52	0.00505759
3581.16	0.00492778
3590.8	0.00404707
3600.45	0.00290571
3610.09	0.00241935
3619.73	0.00311147
3629.37	0.00252848
3639.02	0.0021033
3648.66	0.00148113
3658.3	0.00260034
3667.94	0.00088495
3677.59	0.0012473
3687.23	0.000618921
3696.87	0.00334608
3706.51	0.0010219
3716.16	0.00147644
3725.8	0.00148755
3735.44	0.000890429
3745.08	0.00141368
3754.72	0.000726939
3764.37	0.00276731
3774.01	0.00190664
3783.65	0.00105494
3793.29	0.0030499
3802.94	0.0022799
3812.58	0.00291252
3822.22	0.00256481
3831.86	0.00184674
3841.51	0.00203601
3851.15	0.00284921
3860.79	0.00260771
3870.43	0.00155006
3880.07	0.0017735
3889.72	0.00225085
3899.36	0.00151521
3909	0.00274957
3918.64	0.00200932
3928.29	0.00249689
3937.93	0.00266255
3947.57	0.00242301
3957.21	0.00300313
3966.86	0.00260808
3976.5	0.00269685
3986.14	0.00192794
3995.78	0.00286856
