Measurement: Infrared, Infrared Data Processed
Mineral: Whewellite
Rruff sample: R050240
Ideal chemistry: Ca(C_2_)^6+^O_4_H_2_O
Locality: Huron River, Milan, Ohio, USA
Source: Marcus Origlieri
Description: White fragment
Measured chemistry: Ca_1.00_C_2_O_4_Â·H_2_O
x	intensity
395.336	0.0133311
404.978	0.0137943
414.62	0.0130772
424.263	0.0141134
433.905	0.0143556
443.547	0.0153479
453.19	0.0175834
462.832	0.0187164
472.474	0.0196296
482.117	0.0265597
491.759	0.0435684
501.401	0.0669392
511.044	0.098151
520.686	0.082778
530.328	0.0402421
539.971	0.0298522
549.613	0.0302538
559.255	0.0338119
568.898	0.0386372
578.54	0.0433485
588.182	0.0465688
597.825	0.0464534
607.467	0.0431407
617.109	0.0419246
626.752	0.0450116
636.394	0.0520362
646.036	0.0611034
655.679	0.068783
665.321	0.0704533
674.963	0.06171
684.606	0.0488744
694.248	0.0371806
703.89	0.0284657
713.533	0.0233702
723.175	0.020056
732.817	0.0188709
742.46	0.0191024
752.102	0.0241825
761.744	0.0368397
771.387	0.073735
781.029	0.126475
790.671	0.0280475
800.314	0.00757492
809.956	0.00478395
819.598	0.0043216
829.241	0.00447177
838.883	0.00518234
848.525	0.00629478
858.168	0.00833355
867.81	0.00938752
877.452	0.0150393
887.095	0.0163947
896.737	0.00868209
906.379	0.00574501
916.022	0.0055926
925.664	0.00698454
935.306	0.00953084
944.949	0.0133684
954.591	0.0126396
964.233	0.00960986
973.876	0.0071068
983.518	0.00577862
993.16	0.00517511
1002.8	0.00503298
1012.45	0.00530846
1022.09	0.00527299
1031.73	0.00541259
1041.37	0.00580681
1051.01	0.00584979
1060.66	0.00615035
1070.3	0.0063581
1079.94	0.00651645
1089.58	0.00684056
1099.23	0.00681585
1108.87	0.00700703
1118.51	0.00740317
1128.15	0.00757483
1137.8	0.0080757
1147.44	0.00821618
1157.08	0.00845674
1166.72	0.0088309
1176.37	0.00914072
1186.01	0.00940899
1195.65	0.00984244
1205.29	0.0101805
1214.93	0.0106743
1224.58	0.0111615
1234.22	0.0118601
1243.86	0.0133058
1253.5	0.014583
1263.15	0.0166613
1272.79	0.0200451
1282.43	0.0268738
1292.07	0.0418122
1301.71	0.0905004
1311.36	0.205026
1321	0.174734
1330.64	0.0784536
1340.28	0.0365419
1349.93	0.0251645
1359.57	0.0275386
1369.21	0.0312113
1378.85	0.0318278
1388.5	0.0294977
1398.14	0.0179077
1407.78	0.0134298
1417.42	0.0133868
1427.07	0.0136321
1436.71	0.0151867
1446.35	0.0167633
1455.99	0.0195889
1465.63	0.0217087
1475.28	0.0231283
1484.92	0.0255712
1494.56	0.0253371
1504.2	0.0272494
1513.85	0.0313305
1523.49	0.0368553
1533.13	0.0437309
1542.77	0.0528014
1552.42	0.0659271
1562.06	0.0834253
1571.7	0.10534
1581.34	0.127612
1590.98	0.162388
1600.63	0.229161
1610.27	0.266729
1619.91	0.269886
1629.55	0.237442
1639.2	0.196797
1648.84	0.155839
1658.48	0.129115
1668.12	0.0992964
1677.77	0.0645092
1687.41	0.0376479
1697.05	0.0208185
1706.69	0.0129176
1716.34	0.00926715
1725.98	0.00628857
1735.62	0.0045695
1745.26	0.00304117
1754.9	0.00206148
1764.55	0.00157062
1774.19	0.000863463
1783.83	0.0007471
1793.47	0.00111204
1803.12	0.00107387
1812.76	0.00124996
1822.4	0.00120375
1832.04	0.000891498
1841.69	0.000888309
1851.33	0.000776228
1860.97	0.00057563
1870.61	0.00102122
1880.26	0.000735165
1889.9	0.00115854
1899.54	0.0015374
1909.18	0.00172408
1918.82	0.00179542
1928.47	0.00100668
1938.11	0.000652187
1947.75	-0.000223139
1957.39	0.000292358
1967.04	-0.00104856
1976.68	-0.00105075
1986.32	-0.000302892
1995.96	-0.00111655
2005.61	-0.00173398
2015.25	-0.000452139
2024.89	-0.000765062
2034.53	-0.00265656
2044.17	-0.00265679
2053.82	-0.000144189
2063.46	-0.000298183
2073.1	-0.000964169
2082.74	-0.000601565
2092.39	-0.000677579
2102.03	-0.000713272
2111.67	-0.000625372
2121.31	0.000291318
2130.96	0.000596894
2140.6	-0.000179994
2150.24	-0.00263928
2159.88	-0.0026614
2169.53	-0.00152869
2179.17	-0.00176253
2188.81	-0.00139702
2198.45	-0.000449339
2208.09	-4.57258e-05
2217.74	-0.000343029
2227.38	-0.000228538
2237.02	0.000969252
2246.66	0.000275024
2256.31	0.000312025
2265.95	0.00013658
2275.59	0.00105216
2285.23	0.00124219
2294.88	0.00177716
2304.52	0.00171639
2314.16	0.00156905
2323.8	0.00137549
2333.45	0.00190974
2343.09	0.0020168
2352.73	0.00193942
2362.37	0.00276456
2372.01	0.00167582
2381.66	0.0007479
2391.3	0.000747043
2400.94	0.000183783
2410.58	0.000216477
2420.23	0.000681932
2429.87	0.00129824
2439.51	0.0005912
2449.15	0.000439033
2458.8	0.0011641
2468.44	0.00129362
2478.08	0.000667752
2487.72	0.000923261
2497.36	0.00134383
2507.01	0.00108049
2516.65	0.0013234
2526.29	0.00123419
2535.93	0.000210168
2545.58	0.000421975
2555.22	0.000257665
2564.86	-0.000109114
2574.5	-1.17718e-05
2584.14	-0.000263774
2593.79	-0.000883917
2603.43	-0.00111629
2613.07	-0.00176083
2622.72	-0.00268954
2632.36	-0.00265836
2642	-0.00175183
2651.64	-0.000503062
2661.28	0.000281678
2670.93	0.000716794
2680.57	0.0015228
2690.21	0.00147232
2699.85	0.00167279
2709.5	0.00192072
2719.14	0.00186754
2728.78	0.00207713
2738.42	0.00219936
2748.07	0.00283817
2757.71	0.00280435
2767.35	0.00386393
2776.99	0.00396048
2786.63	0.00407391
2796.28	0.00469847
2805.92	0.00479559
2815.56	0.00509495
2825.2	0.00520998
2834.85	0.00567591
2844.49	0.00593214
2854.13	0.00594883
2863.77	0.0064651
2873.41	0.00713898
2883.06	0.00683805
2892.7	0.00718689
2902.34	0.00787189
2911.99	0.0092905
2921.63	0.010761
2931.27	0.0117856
2940.91	0.0120691
2950.55	0.013337
2960.2	0.0140174
2969.84	0.01461
2979.48	0.0162935
2989.12	0.0185704
2998.77	0.0211436
3008.41	0.0224957
3018.05	0.0254069
3027.69	0.0268182
3037.34	0.0296367
3046.98	0.0311632
3056.62	0.0314993
3066.26	0.029992
3075.9	0.0253073
3085.55	0.0217214
3095.19	0.0196767
3104.83	0.0169451
3114.47	0.0149667
3124.12	0.014184
3133.76	0.0136558
3143.4	0.0129906
3153.04	0.0116613
3162.68	0.0111926
3172.33	0.0101308
3181.97	0.010003
3191.61	0.00956777
3201.26	0.00974429
3210.9	0.0114651
3220.54	0.0122203
3230.18	0.0122811
3239.82	0.0133799
3249.47	0.0159498
3259.11	0.0156013
3268.75	0.0147717
3278.39	0.0135953
3288.04	0.0130373
3297.68	0.014407
3307.32	0.0167866
3316.96	0.0192082
3326.61	0.0224192
3336.25	0.0227429
3345.89	0.0212012
3355.53	0.0180404
3365.17	0.0147276
3374.82	0.0136103
3384.46	0.0130512
3394.1	0.0158371
3403.74	0.0190994
3413.39	0.0261211
3423.03	0.0293756
3432.67	0.0295537
3442.31	0.0266073
3451.95	0.0243617
3461.6	0.0227975
3471.24	0.0244161
3480.88	0.0250042
3490.53	0.0250268
3500.17	0.0203715
3509.81	0.0147067
3519.45	0.0102921
3529.09	0.00654925
3538.74	0.00383484
3548.38	0.00245145
3558.02	0.000896826
3567.66	-0.000348093
3577.31	-0.0011601
3586.95	-0.00103163
3596.59	-0.0018871
3606.23	-0.0024772
3615.88	-0.00369115
3625.52	-0.00384481
3635.16	-0.00431191
3644.8	-0.00408173
3654.44	-0.00496042
3664.09	-0.00452032
3673.73	-0.00453124
3683.37	-0.00515492
3693.01	-0.00555648
3702.66	-0.00589238
3712.3	-0.00523317
3721.94	-0.0057562
3731.58	-0.0044491
3741.22	-0.00436441
3750.87	-0.00499677
3760.51	-0.00609381
3770.15	-0.00509444
3779.8	-0.00446499
3789.44	-0.00635958
3799.08	-0.00480647
3808.72	-0.0050405
3818.36	-0.00605861
3828.01	-0.0046101
3837.65	-0.00396144
3847.29	-0.00586114
3856.93	-0.00449455
3866.58	-0.00543034
3876.22	-0.00538525
3885.86	-0.00503476
3895.5	-0.00559962
3905.14	-0.00526421
3914.79	-0.00560239
3924.43	-0.00580255
3934.07	-0.00565792
3943.71	-0.00575175
3953.36	-0.00541747
3963	-0.00654569
3972.64	-0.00512055
3982.28	-0.00620288
3991.93	-0.00658438
