Measurement: Infrared, Infrared Data Processed
Mineral: Willemite
Rruff sample: R050652
Ideal chemistry: Zn^2+^_2_SiO_4_
Locality: Franklin Furnace, Sussex County, New Jersey, USA
Source: University of Arizona Mineral Museum
Description: Parallel aggregate of colorless acicular crystals
Measured chemistry: (Zn_1.99_Mn_0.01_)_Î£=2_Si_1.00_O_4_
x	intensity
399.193	0.092998
408.835	0.0573087
418.477	0.0337426
428.12	0.0228958
437.762	0.0328371
447.404	0.0418808
457.047	0.107307
466.689	0.0434423
476.331	0.0410239
485.974	0.0445526
495.616	0.0687703
505.258	0.0753024
514.901	0.0913694
524.543	0.11434
534.185	0.140738
543.828	0.167398
553.47	0.203649
563.112	0.240379
572.755	0.26291
582.397	0.201221
592.039	0.159723
601.682	0.139443
611.324	0.15525
620.966	0.091875
630.609	0.0398525
640.251	0.0246782
649.893	0.0236892
659.536	0.0226045
669.178	0.0246632
678.82	0.0221577
688.463	0.0249512
698.105	0.0255326
707.747	0.028093
717.39	0.0316446
727.032	0.0337145
736.674	0.0428492
746.317	0.0474552
755.959	0.0573282
765.601	0.0699649
775.244	0.0820275
784.886	0.0966666
794.528	0.111868
804.171	0.131272
813.813	0.153389
823.455	0.179721
833.098	0.208611
842.74	0.243993
852.382	0.274729
862.025	0.297436
871.667	0.258518
881.309	0.265052
890.952	0.29617
900.594	0.273135
910.236	0.231882
919.879	0.182349
929.521	0.2241
939.163	0.166372
948.806	0.117232
958.448	0.0897488
968.09	0.101652
977.733	0.106432
987.375	0.0681366
997.017	0.0380184
1006.66	0.0251917
1016.3	0.0178114
1025.94	0.0170418
1035.59	0.0153586
1045.23	0.0144272
1054.87	0.0123831
1064.51	0.0136291
1074.16	0.0121634
1083.8	0.0125407
1093.44	0.01101
1103.08	0.010084
1112.72	0.00896297
1122.37	0.00934635
1132.01	0.00905202
1141.65	0.00832972
1151.3	0.00789368
1160.94	0.00769425
1170.58	0.00866247
1180.22	0.0091759
1189.86	0.00867142
1199.51	0.0089591
1209.15	0.00967379
1218.79	0.0124059
1228.43	0.0163811
1238.08	0.011513
1247.72	0.0104917
1257.36	0.00911896
1267	0.0118148
1276.64	0.00850098
1286.29	0.00944183
1295.93	0.00936929
1305.57	0.00881863
1315.21	0.00812474
1324.86	0.00797796
1334.5	0.00941696
1344.14	0.00840459
1353.78	0.00903745
1363.43	0.0104323
1373.07	0.00897241
1382.71	0.0103942
1392.35	0.0116793
1401.99	0.0117952
1411.64	0.0129593
1421.28	0.0117604
1430.92	0.0133686
1440.57	0.0125276
1450.21	0.0143653
1459.85	0.0124012
1469.49	0.014231
1479.13	0.0135375
1488.78	0.0128546
1498.42	0.0120616
1508.06	0.011577
1517.7	0.0130704
1527.35	0.0120548
1536.99	0.0114453
1546.63	0.0121185
1556.27	0.0118547
1565.91	0.0109288
1575.56	0.0128837
1585.2	0.0118894
1594.84	0.014023
1604.48	0.0138813
1614.13	0.013131
1623.77	0.0133497
1633.41	0.0136316
1643.05	0.0139013
1652.7	0.0110529
1662.34	0.0133374
1671.98	0.0121695
1681.62	0.0146236
1691.27	0.0130849
1700.91	0.0124603
1710.55	0.0143115
1720.19	0.0131097
1729.84	0.0127478
1739.48	0.0128903
1749.12	0.0166493
1758.76	0.0149411
1768.4	0.0163789
1778.05	0.0152323
1787.69	0.016163
1797.33	0.0165826
1806.97	0.0157253
1816.62	0.0152651
1826.26	0.0146838
1835.9	0.0152547
1845.54	0.0166637
1855.18	0.0158918
1864.83	0.0172681
1874.47	0.0180723
1884.11	0.0137753
1893.75	0.0151241
1903.4	0.0182897
1913.04	0.0189816
1922.68	0.0174134
1932.32	0.011971
1941.97	0.0142514
1951.61	0.0223582
1961.25	0.0156515
1970.89	0.0129122
1980.54	0.0121715
1990.18	0.00954435
1999.82	0.0174904
2009.46	0.0232216
2019.11	0.0117335
2028.75	0.0188381
2038.39	0.0170995
2048.03	0.0177618
2057.67	0.0206592
2067.32	0.0173499
2076.96	0.0186102
2086.6	0.0238757
2096.24	0.0184218
2105.89	0.0185204
2115.53	0.0216721
2125.17	0.020392
2134.81	0.0247107
2144.45	0.0185968
2154.1	0.0215074
2163.74	0.0247604
2173.38	0.0155871
2183.02	0.0174063
2192.67	0.0107391
2202.31	0.0156634
2211.95	0.0179497
2221.59	0.0221653
2231.24	0.0256592
2240.88	0.0235214
2250.52	0.0218274
2260.16	0.021837
2269.8	0.017885
2279.45	0.025442
2289.09	0.024013
2298.73	0.0224819
2308.38	0.0191226
2318.02	0.0237964
2327.66	0.0221374
2337.3	0.0215564
2346.94	0.0228756
2356.59	0.0226526
2366.23	0.0234232
2375.87	0.0190987
2385.51	0.0217465
2395.16	0.0229635
2404.8	0.0163697
2414.44	0.025177
2424.08	0.0297978
2433.72	0.0292714
2443.37	0.0232968
2453.01	0.0224743
2462.65	0.0226711
2472.29	0.0230907
2481.94	0.0241496
2491.58	0.0246774
2501.22	0.0191644
2510.86	0.0242733
2520.51	0.0231761
2530.15	0.0235881
2539.79	0.0250944
2549.43	0.0272735
2559.07	0.0256959
2568.72	0.0232685
2578.36	0.0253149
2588	0.0274862
2597.64	0.0201955
2607.29	0.0227489
2616.93	0.0221809
2626.57	0.0248195
2636.21	0.0251985
2645.86	0.0236802
2655.5	0.0271822
2665.14	0.0237984
2674.78	0.0253
2684.43	0.0273556
2694.07	0.0241696
2703.71	0.0235441
2713.35	0.0236518
2722.99	0.0276176
2732.64	0.0245869
2742.28	0.0246031
2751.92	0.0281736
2761.56	0.0263506
2771.21	0.0244269
2780.85	0.0275145
2790.49	0.0276547
2800.13	0.0252966
2809.78	0.0249733
2819.42	0.02464
2829.06	0.0262111
2838.7	0.0283244
2848.34	0.0260593
2857.99	0.0273742
2867.63	0.029522
2877.27	0.0241494
2886.91	0.0229504
2896.56	0.0260485
2906.2	0.0350275
2915.84	0.0280234
2925.48	0.0327001
2935.13	0.0269799
2944.77	0.0272658
2954.41	0.0297955
2964.05	0.0280247
2973.7	0.029825
2983.34	0.0288417
2992.98	0.0327746
3002.62	0.0293846
3012.26	0.0274202
3021.91	0.0280348
3031.55	0.0313276
3041.19	0.0304908
3050.83	0.0297441
3060.48	0.0312078
3070.12	0.02804
3079.76	0.0272251
3089.4	0.0310413
3099.05	0.0293429
3108.69	0.0364297
3118.33	0.0314291
3127.97	0.0275436
3137.61	0.0309783
3147.26	0.0340556
3156.9	0.0301619
3166.54	0.0299394
3176.18	0.0294617
3185.83	0.0346257
3195.47	0.027776
3205.11	0.0297441
3214.75	0.0354907
3224.4	0.028211
3234.04	0.0311055
3243.68	0.0327956
3253.32	0.0312109
3262.97	0.0337618
3272.61	0.0320107
3282.25	0.0347697
3291.89	0.0298033
3301.53	0.0289767
3311.18	0.0338859
3320.82	0.0355685
3330.46	0.03286
3340.1	0.0278678
3349.75	0.0271579
3359.39	0.0303342
3369.03	0.0269889
3378.67	0.0357551
3388.32	0.0330529
3397.96	0.03245
3407.6	0.0330513
3417.24	0.0359473
3426.89	0.0305106
3436.53	0.0296816
3446.17	0.0400878
3455.81	0.0348744
3465.45	0.0357446
3475.1	0.0347528
3484.74	0.0345831
3494.38	0.0328732
3504.02	0.0297908
3513.67	0.0305528
3523.31	0.0358653
3532.95	0.0277817
3542.59	0.0350057
3552.24	0.0340458
3561.88	0.0404354
3571.52	0.0288154
3581.16	0.037286
3590.8	0.025295
3600.45	0.0293224
3610.09	0.0315654
3619.73	0.0339095
3629.37	0.0382459
3639.02	0.030696
3648.66	0.0385481
3658.3	0.0271164
3667.94	0.0351077
3677.59	0.0335028
3687.23	0.0244796
3696.87	0.0254714
3706.51	0.0375334
3716.16	0.0390859
3725.8	0.024065
3735.44	0.0324903
3745.08	0.0311054
3754.72	0.0371812
3764.37	0.0369151
3774.01	0.0347817
3783.65	0.0365563
3793.29	0.0300453
3802.94	0.0311851
3812.58	0.0381182
3822.22	0.030537
3831.86	0.0360811
3841.51	0.0319874
3851.15	0.0303603
3860.79	0.0323956
3870.43	0.0289764
3880.07	0.0396451
3889.72	0.0331593
3899.36	0.0352255
3909	0.0340889
3918.64	0.0350039
3928.29	0.0380065
3937.93	0.0366919
3947.57	0.0330283
3957.21	0.0467639
3966.86	0.0342822
3976.5	0.0321292
3986.14	0.0396799
3995.78	0.0340293
