Measurement: Infrared, Infrared Data Processed
Mineral: Witherite
Rruff sample: R040040
Ideal chemistry: BaCO_3_
Locality: Cave-in-Rock, Hardin County, Illinois, USA
Source: University of Arizona Mineral Museum
Description: Tan colored prismatic group of columnar crystals
Measured chemistry: (Ba_0.98_Sr_0.02_)_Î£=1_CO_3_; CO_2_ estimated by difference
x	intensity
399.193	0
408.835	0.0115993
418.477	0.00789215
428.12	0.00849644
437.762	0.00789454
447.404	0.00633086
457.047	0.00755302
466.689	0.00699597
476.331	0.00708773
485.974	0.00715822
495.616	0.00632472
505.258	0.0072099
514.901	0.00705389
524.543	0.0074518
534.185	0.00776909
543.828	0.00713686
553.47	0.00689613
563.112	0.00626828
572.755	0.00685051
582.397	0.00685245
592.039	0.00658113
601.682	0.00686978
611.324	0.00786705
620.966	0.00796747
630.609	0.00828425
640.251	0.00825256
649.893	0.00840365
659.536	0.00909153
669.178	0.0104833
678.82	0.0145976
688.463	0.05841
698.105	0.0221645
707.747	0.00705789
717.39	0.00766471
727.032	0.00708695
736.674	0.00761532
746.317	0.00795152
755.959	0.00874489
765.601	0.00970585
775.244	0.0101193
784.886	0.0104776
794.528	0.0107355
804.171	0.0116356
813.813	0.0125608
823.455	0.0144745
833.098	0.0224082
842.74	0.0482881
852.382	0.176053
862.025	0.111946
871.667	0.0243704
881.309	0.0225128
890.952	0.0165997
900.594	0.0161965
910.236	0.0153382
919.879	0.0155004
929.521	0.0159132
939.163	0.0155379
948.806	0.015479
958.448	0.0160162
968.09	0.0165478
977.733	0.0179848
987.375	0.0194063
997.017	0.0207167
1006.66	0.0220979
1016.3	0.0229296
1025.94	0.0231947
1035.59	0.0238376
1045.23	0.024015
1054.87	0.0270644
1064.51	0.0256737
1074.16	0.0245904
1083.8	0.0260328
1093.44	0.0271279
1103.08	0.0278171
1112.72	0.0288663
1122.37	0.0293519
1132.01	0.0300697
1141.65	0.0315289
1151.3	0.0334875
1160.94	0.0349244
1170.58	0.0365725
1180.22	0.0388466
1189.86	0.0413313
1199.51	0.0437227
1209.15	0.0473831
1218.79	0.0507331
1228.43	0.054421
1238.08	0.0595367
1247.72	0.0652972
1257.36	0.071428
1267	0.0787224
1276.64	0.0883484
1286.29	0.100364
1295.93	0.11238
1305.57	0.125966
1315.21	0.141277
1324.86	0.159161
1334.5	0.182566
1344.14	0.21191
1353.78	0.248354
1363.43	0.296807
1373.07	0.347742
1382.71	0.403962
1392.35	0.48848
1401.99	0.581276
1411.64	0.66847
1421.28	0.651884
1430.92	0.558571
1440.57	0.451245
1450.21	0.361547
1459.85	0.289982
1469.49	0.232478
1479.13	0.186901
1488.78	0.148949
1498.42	0.113771
1508.06	0.0730113
1517.7	0.0364479
1527.35	0.0215271
1536.99	0.0181969
1546.63	0.0177812
1556.27	0.0183403
1565.91	0.0177364
1575.56	0.0165281
1585.2	0.0144966
1594.84	0.0127839
1604.48	0.0115552
1614.13	0.00994034
1623.77	0.00847987
1633.41	0.00835925
1643.05	0.00768658
1652.7	0.0061221
1662.34	0.00557635
1671.98	0.00481227
1681.62	0.00403947
1691.27	0.00354244
1700.91	0.00266576
1710.55	0.00270653
1720.19	0.00328274
1729.84	0.00363526
1739.48	0.00469644
1749.12	0.0314958
1758.76	0.014706
1768.4	0.003212
1778.05	0.00333598
1787.69	0.003284
1797.33	0.00357703
1806.97	0.00330958
1816.62	0.00327005
1826.26	0.00333299
1835.9	0.00333309
1845.54	0.00341726
1855.18	0.00407079
1864.83	0.00361319
1874.47	0.0040336
1884.11	0.00420022
1893.75	0.00451027
1903.4	0.00331775
1913.04	0.00434203
1922.68	0.00385695
1932.32	0.00353848
1941.97	0.00448647
1951.61	0.00253508
1961.25	0.00483014
1970.89	0.00498911
1980.54	0.00706714
1990.18	0.00486153
1999.82	0.00372807
2009.46	0.00308113
2019.11	0.00629092
2028.75	0.00488283
2038.39	0.00726738
2048.03	0.0072867
2057.67	0.00506292
2067.32	0.00751383
2076.96	0.00648313
2086.6	0.00732384
2096.24	0.0072807
2105.89	0.00544969
2115.53	0.00584
2125.17	0.00640207
2134.81	0.00502115
2144.45	0.00645338
2154.1	0.00240684
2163.74	0.00790957
2173.38	0.00926253
2183.02	0.0076152
2192.67	0.00974411
2202.31	0.00733647
2211.95	0.00725023
2221.59	0.00789796
2231.24	0.00884701
2240.88	0.00811479
2250.52	0.00771261
2260.16	0.00947509
2269.8	0.0100758
2279.45	0.00935951
2289.09	0.0108647
2298.73	0.00939424
2308.38	0.00981238
2318.02	0.0101639
2327.66	0.00964511
2337.3	0.0104632
2346.94	0.00975461
2356.59	0.0109313
2366.23	0.010461
2375.87	0.00958595
2385.51	0.00950132
2395.16	0.00887581
2404.8	0.0101767
2414.44	0.0115833
2424.08	0.0111382
2433.72	0.0129901
2443.37	0.0193888
2453.01	0.0276991
2462.65	0.0199651
2472.29	0.0171273
2481.94	0.0139463
2491.58	0.0117704
2501.22	0.0111337
2510.86	0.0113339
2520.51	0.01113
2530.15	0.0100923
2539.79	0.0122607
2549.43	0.0118983
2559.07	0.010233
2568.72	0.0109333
2578.36	0.00918398
2588	0.00970943
2597.64	0.00940356
2607.29	0.00924271
2616.93	0.00947314
2626.57	0.00939211
2636.21	0.00944436
2645.86	0.009439
2655.5	0.00962272
2665.14	0.00920875
2674.78	0.00854777
2684.43	0.00767792
2694.07	0.00845579
2703.71	0.00832672
2713.35	0.00794231
2722.99	0.00855303
2732.64	0.0078181
2742.28	0.00708528
2751.92	0.00860254
2761.56	0.0082225
2771.21	0.00734937
2780.85	0.00796574
2790.49	0.00795197
2800.13	0.00871946
2809.78	0.00932673
2819.42	0.0120477
2829.06	0.0110517
2838.7	0.0106545
2848.34	0.0097217
2857.99	0.00866677
2867.63	0.00941115
2877.27	0.0104007
2886.91	0.0100739
2896.56	0.0103773
2906.2	0.0101767
2915.84	0.0114167
2925.48	0.0100396
2935.13	0.010281
2944.77	0.0109428
2954.41	0.0107227
2964.05	0.0111235
2973.7	0.0100523
2983.34	0.0103167
2992.98	0.0108773
3002.62	0.0120633
3012.26	0.0115742
3021.91	0.0133172
3031.55	0.0134196
3041.19	0.0145012
3050.83	0.013701
3060.48	0.0152475
3070.12	0.0166821
3079.76	0.0149718
3089.4	0.0151304
3099.05	0.0139532
3108.69	0.0158752
3118.33	0.0155368
3127.97	0.0156736
3137.61	0.0165479
3147.26	0.017048
3156.9	0.0170346
3166.54	0.0161313
3176.18	0.0169422
3185.83	0.0158332
3195.47	0.0172458
3205.11	0.0163859
3214.75	0.017317
3224.4	0.0158752
3234.04	0.0180359
3243.68	0.0169276
3253.32	0.0179799
3262.97	0.0176425
3272.61	0.0176347
3282.25	0.0173812
3291.89	0.0174517
3301.53	0.0182847
3311.18	0.0170758
3320.82	0.0186208
3330.46	0.0184991
3340.1	0.0190073
3349.75	0.0203163
3359.39	0.0202854
3369.03	0.0176821
3378.67	0.0188538
3388.32	0.0182899
3397.96	0.0187435
3407.6	0.0195389
3417.24	0.0187524
3426.89	0.0200849
3436.53	0.020491
3446.17	0.0176339
3455.81	0.0197799
3465.45	0.0209331
3475.1	0.0200611
3484.74	0.0185538
3494.38	0.0186778
3504.02	0.0184076
3513.67	0.0200548
3523.31	0.018987
3532.95	0.0182719
3542.59	0.0200042
3552.24	0.0185382
3561.88	0.018537
3571.52	0.0203634
3581.16	0.0193589
3590.8	0.0201089
3600.45	0.0185639
3610.09	0.0199114
3619.73	0.0194182
3629.37	0.0201537
3639.02	0.0181627
3648.66	0.0217081
3658.3	0.0190715
3667.94	0.0199143
3677.59	0.0183584
3687.23	0.0192907
3696.87	0.0215726
3706.51	0.0182109
3716.16	0.0213802
3725.8	0.0206952
3735.44	0.0207084
3745.08	0.0196897
3754.72	0.0218432
3764.37	0.0202437
3774.01	0.0194718
3783.65	0.0200238
3793.29	0.0210112
3802.94	0.0213714
3812.58	0.0228473
3822.22	0.0231542
3831.86	0.0209652
3841.51	0.0219451
3851.15	0.023872
3860.79	0.0210519
3870.43	0.0196404
3880.07	0.0230217
3889.72	0.0210888
3899.36	0.0234157
3909	0.0208108
3918.64	0.0210466
3928.29	0.0198186
3937.93	0.0213706
3947.57	0.0235967
3957.21	0.0225826
3966.86	0.0216213
3976.5	0.0223715
3986.14	0.0232963
3995.78	0.0234804
