Measurement: Infrared, Infrared Data Processed
Mineral: Witherite
Rruff sample: R050267
Ideal chemistry: BaCO_3_
Locality: Fallowfields mine, Alston Moor, England
Source: Marcus Origlieri
Description: Colorless granular aggregate
Measured chemistry: (Ba_0.96_Sr_0.04_)CO_3_
x	intensity
399.193	0.00574834
408.835	0.00551984
418.477	0.0066823
428.12	0.00510345
437.762	0.00519757
447.404	0.00638884
457.047	0.00535992
466.689	0.00551522
476.331	0.00512141
485.974	0.00538517
495.616	0.00538514
505.258	0.00528675
514.901	0.00524915
524.543	0.00604375
534.185	0.00551963
543.828	0.0065036
553.47	0.0071837
563.112	0.00752403
572.755	0.00709608
582.397	0.00778845
592.039	0.00768984
601.682	0.00885066
611.324	0.00938388
620.966	0.00970283
630.609	0.00980483
640.251	0.010485
649.893	0.010712
659.536	0.0118718
669.178	0.0136944
678.82	0.0181245
688.463	0.0594806
698.105	0.0230384
707.747	0.00798242
717.39	0.00885578
727.032	0.00930081
736.674	0.0101039
746.317	0.0102699
755.959	0.0112517
765.601	0.0119094
775.244	0.0126271
784.886	0.0131226
794.528	0.013611
804.171	0.0144768
813.813	0.0158073
823.455	0.018576
833.098	0.027318
842.74	0.0511945
852.382	0.136079
862.025	0.0823726
871.667	0.0193308
881.309	0.017812
890.952	0.0163915
900.594	0.0162148
910.236	0.0159323
919.879	0.0165481
929.521	0.0168915
939.163	0.0170627
948.806	0.0178214
958.448	0.0183417
968.09	0.0191664
977.733	0.0192362
987.375	0.0202956
997.017	0.0213156
1006.66	0.0223914
1016.3	0.0233075
1025.94	0.0243418
1035.59	0.0251688
1045.23	0.0263213
1054.87	0.0295161
1064.51	0.0293107
1074.16	0.0286853
1083.8	0.0302226
1093.44	0.0316748
1103.08	0.0327974
1112.72	0.0346634
1122.37	0.035731
1132.01	0.0371851
1141.65	0.0388924
1151.3	0.0415747
1160.94	0.0428038
1170.58	0.0454189
1180.22	0.0484379
1189.86	0.0510755
1199.51	0.0546115
1209.15	0.0589586
1218.79	0.0626149
1228.43	0.0664571
1238.08	0.0721959
1247.72	0.0778669
1257.36	0.0841642
1267	0.0913477
1276.64	0.0995061
1286.29	0.109988
1295.93	0.12057
1305.57	0.13065
1315.21	0.142583
1324.86	0.156465
1334.5	0.172397
1344.14	0.19203
1353.78	0.215282
1363.43	0.244117
1373.07	0.271618
1382.71	0.300342
1392.35	0.340848
1401.99	0.382204
1411.64	0.414527
1421.28	0.395524
1430.92	0.342579
1440.57	0.282069
1450.21	0.232521
1459.85	0.192094
1469.49	0.159152
1479.13	0.132255
1488.78	0.109043
1498.42	0.087557
1508.06	0.0614164
1517.7	0.0303454
1527.35	0.0152128
1536.99	0.0118036
1546.63	0.0113228
1556.27	0.0117904
1565.91	0.0110163
1575.56	0.0103351
1585.2	0.0090958
1594.84	0.00788666
1604.48	0.0069821
1614.13	0.0063631
1623.77	0.0054294
1633.41	0.0051981
1643.05	0.00496143
1652.7	0.00461805
1662.34	0.00375762
1671.98	0.00316393
1681.62	0.00278367
1691.27	0.00217381
1700.91	0.00173775
1710.55	0.00154658
1720.19	0.0013372
1729.84	0.00164098
1739.48	0.0026473
1749.12	0.023357
1758.76	0.0131862
1768.4	0.00292432
1778.05	0.00284701
1787.69	0.00290823
1797.33	0.00290431
1806.97	0.00320762
1816.62	0.00361466
1826.26	0.0034377
1835.9	0.00414121
1845.54	0.00393451
1855.18	0.00484143
1864.83	0.00384331
1874.47	0.00421129
1884.11	0.00535309
1893.75	0.00482367
1903.4	0.00341039
1913.04	0.00397363
1922.68	0.00478265
1932.32	0.00447527
1941.97	0.00463902
1951.61	0.00480115
1961.25	0.00607201
1970.89	0.00243203
1980.54	0.00724444
1990.18	0.00676994
1999.82	0.00435937
2009.46	0.0046315
2019.11	0.0102609
2028.75	0.00740208
2038.39	0.00461935
2048.03	0.00762958
2057.67	0.00669346
2067.32	0.00692361
2076.96	0.00728787
2086.6	0.00813511
2096.24	0.00729701
2105.89	0.00778887
2115.53	0.00646126
2125.17	0.00477141
2134.81	0.0056587
2144.45	0.00483035
2154.1	0.00520132
2163.74	0.00888179
2173.38	0.00563132
2183.02	0.00817318
2192.67	0.00582097
2202.31	0.00711932
2211.95	0.0104487
2221.59	0.0109176
2231.24	0.00802354
2240.88	0.00811871
2250.52	0.00873408
2260.16	0.00801196
2269.8	0.00747187
2279.45	0.0100675
2289.09	0.0103566
2298.73	0.0103642
2308.38	0.0112085
2318.02	0.0102241
2327.66	0.0112776
2337.3	0.0110103
2346.94	0.0100655
2356.59	0.0113584
2366.23	0.0111989
2375.87	0.00882119
2385.51	0.00959123
2395.16	0.00897819
2404.8	0.00895157
2414.44	0.00842013
2424.08	0.00977006
2433.72	0.0108931
2443.37	0.0190926
2453.01	0.0265804
2462.65	0.0199205
2472.29	0.016024
2481.94	0.0119187
2491.58	0.00954059
2501.22	0.0111168
2510.86	0.0101252
2520.51	0.0112388
2530.15	0.00994043
2539.79	0.00878916
2549.43	0.00954176
2559.07	0.0094004
2568.72	0.00947745
2578.36	0.00651685
2588	0.00761668
2597.64	0.00744984
2607.29	0.00917331
2616.93	0.00946925
2626.57	0.00902351
2636.21	0.00968182
2645.86	0.00850997
2655.5	0.00965371
2665.14	0.00867387
2674.78	0.00804422
2684.43	0.00793288
2694.07	0.00881514
2703.71	0.00848642
2713.35	0.00826843
2722.99	0.00781018
2732.64	0.00816765
2742.28	0.007767
2751.92	0.00749452
2761.56	0.00841138
2771.21	0.00841812
2780.85	0.00948843
2790.49	0.00887343
2800.13	0.0103552
2809.78	0.0107518
2819.42	0.0119968
2829.06	0.0117283
2838.7	0.0102229
2848.34	0.00943497
2857.99	0.00890763
2867.63	0.0109521
2877.27	0.00952477
2886.91	0.00977665
2896.56	0.0098509
2906.2	0.00978222
2915.84	0.0101633
2925.48	0.00923472
2935.13	0.0102645
2944.77	0.00846513
2954.41	0.0106385
2964.05	0.00964214
2973.7	0.00929434
2983.34	0.0107019
2992.98	0.0102266
3002.62	0.0120103
3012.26	0.0126046
3021.91	0.0142661
3031.55	0.0126218
3041.19	0.0140999
3050.83	0.0132077
3060.48	0.0152629
3070.12	0.0137069
3079.76	0.0144
3089.4	0.0151677
3099.05	0.0142771
3108.69	0.0142829
3118.33	0.0146297
3127.97	0.0145101
3137.61	0.0160577
3147.26	0.0137921
3156.9	0.0150846
3166.54	0.0143772
3176.18	0.016135
3185.83	0.0140241
3195.47	0.0166167
3205.11	0.0135102
3214.75	0.0143674
3224.4	0.0150175
3234.04	0.0167365
3243.68	0.0170182
3253.32	0.0159297
3262.97	0.0167418
3272.61	0.0152585
3282.25	0.0180916
3291.89	0.0151022
3301.53	0.0173962
3311.18	0.018625
3320.82	0.015662
3330.46	0.0144017
3340.1	0.0195003
3349.75	0.0198431
3359.39	0.0146741
3369.03	0.0171538
3378.67	0.0193151
3388.32	0.0139473
3397.96	0.0177908
3407.6	0.0165267
3417.24	0.0173397
3426.89	0.0198091
3436.53	0.0192179
3446.17	0.0168964
3455.81	0.0182729
3465.45	0.0166025
3475.1	0.0178313
3484.74	0.0179062
3494.38	0.0146106
3504.02	0.0171819
3513.67	0.0157612
3523.31	0.0167188
3532.95	0.019034
3542.59	0.0183809
3552.24	0.0163055
3561.88	0.0195494
3571.52	0.0185527
3581.16	0.0194533
3590.8	0.0136289
3600.45	0.0191707
3610.09	0.0188662
3619.73	0.017702
3629.37	0.0197111
3639.02	0.0219459
3648.66	0.0209946
3658.3	0.0165811
3667.94	0.0205487
3677.59	0.0168162
3687.23	0.0178233
3696.87	0.0151266
3706.51	0.0184388
3716.16	0.0172397
3725.8	0.0181554
3735.44	0.016581
3745.08	0.0203948
3754.72	0.017767
3764.37	0.022444
3774.01	0.02075
3783.65	0.0210432
3793.29	0.0239218
3802.94	0.0144333
3812.58	0.0206169
3822.22	0.0208877
3831.86	0.0203268
3841.51	0.0195788
3851.15	0.0164582
3860.79	0.0194616
3870.43	0.0205036
3880.07	0.0259964
3889.72	0.0194684
3899.36	0.0208942
3909	0.0171203
3918.64	0.0224646
3928.29	0.0189855
3937.93	0.0182177
3947.57	0.0197195
3957.21	0.0204708
3966.86	0.0194682
3976.5	0.021949
3986.14	0.0227284
3995.78	0.0226748
