Measurement: Infrared, Infrared Data Processed
Mineral: Wittichenite
Rruff sample: R050327
Ideal chemistry: Cu_3_BiS_3_
Locality: Grube Daniel, Wittichen, Schwarzwald, Germany
Source: Marcus Origlieri
Description: Tin-white metallic blebs
Measured chemistry: Cu_3.00_Bi_1.00_S_3.00_
x	intensity
399.193	0.194397
408.835	0.192695
418.477	0.196811
428.12	0.196655
437.762	0.197503
447.404	0.200182
457.047	0.201919
466.689	0.202959
476.331	0.20424
485.974	0.206204
495.616	0.207117
505.258	0.208637
514.901	0.209316
524.543	0.209879
534.185	0.209738
543.828	0.210782
553.47	0.209927
563.112	0.210805
572.755	0.21316
582.397	0.216203
592.039	0.220134
601.682	0.222688
611.324	0.220419
620.966	0.215358
630.609	0.216969
640.251	0.214452
649.893	0.21384
659.536	0.216718
669.178	0.220477
678.82	0.222799
688.463	0.225512
698.105	0.227908
707.747	0.229885
717.39	0.232135
727.032	0.234215
736.674	0.236002
746.317	0.237972
755.959	0.239859
765.601	0.241789
775.244	0.243424
784.886	0.244836
794.528	0.246044
804.171	0.246785
813.813	0.247834
823.455	0.249169
833.098	0.250571
842.74	0.253385
852.382	0.251232
862.025	0.253859
871.667	0.255683
881.309	0.257248
890.952	0.259361
900.594	0.261116
910.236	0.263201
919.879	0.265217
929.521	0.267291
939.163	0.269093
948.806	0.270843
958.448	0.272397
968.09	0.273862
977.733	0.275893
987.375	0.276293
997.017	0.277969
1006.66	0.27976
1016.3	0.282015
1025.94	0.283737
1035.59	0.28511
1045.23	0.28641
1054.87	0.287575
1064.51	0.288993
1074.16	0.288751
1083.8	0.287699
1093.44	0.285603
1103.08	0.282288
1112.72	0.279607
1122.37	0.277057
1132.01	0.274148
1141.65	0.272029
1151.3	0.271013
1160.94	0.270387
1170.58	0.269856
1180.22	0.268892
1189.86	0.267116
1199.51	0.265005
1209.15	0.264641
1218.79	0.265907
1228.43	0.267563
1238.08	0.269949
1247.72	0.272057
1257.36	0.274583
1267	0.276628
1276.64	0.279056
1286.29	0.280764
1295.93	0.283015
1305.57	0.284981
1315.21	0.286635
1324.86	0.288695
1334.5	0.290172
1344.14	0.291554
1353.78	0.292758
1363.43	0.294297
1373.07	0.295837
1382.71	0.296928
1392.35	0.297202
1401.99	0.296282
1411.64	0.295682
1421.28	0.295353
1430.92	0.294985
1440.57	0.294507
1450.21	0.293383
1459.85	0.292726
1469.49	0.291664
1479.13	0.292361
1488.78	0.293257
1498.42	0.294594
1508.06	0.296334
1517.7	0.297284
1527.35	0.298362
1536.99	0.299528
1546.63	0.300135
1556.27	0.301074
1565.91	0.301336
1575.56	0.302495
1585.2	0.302276
1594.84	0.303347
1604.48	0.303946
1614.13	0.304618
1623.77	0.305507
1633.41	0.306045
1643.05	0.306343
1652.7	0.308165
1662.34	0.307304
1671.98	0.307812
1681.62	0.308652
1691.27	0.309113
1700.91	0.310143
1710.55	0.309714
1720.19	0.310191
1729.84	0.309779
1739.48	0.309563
1749.12	0.310405
1758.76	0.312025
1768.4	0.313203
1778.05	0.313801
1787.69	0.314528
1797.33	0.315261
1806.97	0.315411
1816.62	0.315742
1826.26	0.316392
1835.9	0.316199
1845.54	0.316723
1855.18	0.317058
1864.83	0.31754
1874.47	0.317808
1884.11	0.31746
1893.75	0.318998
1903.4	0.319256
1913.04	0.319926
1922.68	0.320979
1932.32	0.320582
1941.97	0.321305
1951.61	0.32195
1961.25	0.322753
1970.89	0.322956
1980.54	0.323029
1990.18	0.323032
1999.82	0.325239
2009.46	0.32551
2019.11	0.326251
2028.75	0.32857
2038.39	0.325599
2048.03	0.326249
2057.67	0.329085
2067.32	0.328448
2076.96	0.328306
2086.6	0.329159
2096.24	0.330126
2105.89	0.330887
2115.53	0.33103
2125.17	0.331809
2134.81	0.332724
2144.45	0.331133
2154.1	0.332705
2163.74	0.332797
2173.38	0.333623
2183.02	0.333479
2192.67	0.333365
2202.31	0.336704
2211.95	0.336028
2221.59	0.336087
2231.24	0.336847
2240.88	0.337891
2250.52	0.338325
2260.16	0.33725
2269.8	0.33884
2279.45	0.338881
2289.09	0.339755
2298.73	0.339703
2308.38	0.339871
2318.02	0.3409
2327.66	0.342575
2337.3	0.343058
2346.94	0.342976
2356.59	0.342992
2366.23	0.343801
2375.87	0.342978
2385.51	0.342889
2395.16	0.34341
2404.8	0.342568
2414.44	0.34363
2424.08	0.343504
2433.72	0.342919
2443.37	0.343397
2453.01	0.344695
2462.65	0.34484
2472.29	0.344847
2481.94	0.345165
2491.58	0.345377
2501.22	0.345835
2510.86	0.346369
2520.51	0.34642
2530.15	0.34692
2539.79	0.347212
2549.43	0.347542
2559.07	0.34812
2568.72	0.348394
2578.36	0.349243
2588	0.349995
2597.64	0.350366
2607.29	0.350462
2616.93	0.351667
2626.57	0.352757
2636.21	0.35294
2645.86	0.353978
2655.5	0.354408
2665.14	0.3559
2674.78	0.355583
2684.43	0.355754
2694.07	0.356055
2703.71	0.35644
2713.35	0.356879
2722.99	0.356867
2732.64	0.357669
2742.28	0.357729
2751.92	0.358232
2761.56	0.358279
2771.21	0.358968
2780.85	0.359284
2790.49	0.359381
2800.13	0.359355
2809.78	0.360208
2819.42	0.360172
2829.06	0.360837
2838.7	0.36065
2848.34	0.357595
2857.99	0.357543
2867.63	0.359343
2877.27	0.360197
2886.91	0.360019
2896.56	0.360142
2906.2	0.359036
2915.84	0.355945
2925.48	0.354456
2935.13	0.356396
2944.77	0.358013
2954.41	0.35889
2964.05	0.359361
2973.7	0.360173
2983.34	0.361493
2992.98	0.361314
3002.62	0.361537
3012.26	0.363428
3021.91	0.362871
3031.55	0.363555
3041.19	0.363248
3050.83	0.363869
3060.48	0.363973
3070.12	0.363794
3079.76	0.364988
3089.4	0.364757
3099.05	0.365412
3108.69	0.365244
3118.33	0.366103
3127.97	0.365748
3137.61	0.366351
3147.26	0.366616
3156.9	0.367394
3166.54	0.36739
3176.18	0.366853
3185.83	0.367245
3195.47	0.367857
3205.11	0.367481
3214.75	0.367348
3224.4	0.366759
3234.04	0.367604
3243.68	0.367007
3253.32	0.36814
3262.97	0.367291
3272.61	0.368184
3282.25	0.367957
3291.89	0.367086
3301.53	0.367214
3311.18	0.367149
3320.82	0.367318
3330.46	0.367616
3340.1	0.368109
3349.75	0.36801
3359.39	0.368004
3369.03	0.367535
3378.67	0.366963
3388.32	0.366897
3397.96	0.367455
3407.6	0.367673
3417.24	0.368109
3426.89	0.36719
3436.53	0.367739
3446.17	0.368047
3455.81	0.367902
3465.45	0.368923
3475.1	0.367862
3484.74	0.368011
3494.38	0.367754
3504.02	0.367644
3513.67	0.367783
3523.31	0.367752
3532.95	0.367827
3542.59	0.368104
3552.24	0.368063
3561.88	0.368924
3571.52	0.36885
3581.16	0.369368
3590.8	0.369043
3600.45	0.369027
3610.09	0.370666
3619.73	0.370413
3629.37	0.370607
3639.02	0.370799
3648.66	0.372673
3658.3	0.371937
3667.94	0.372193
3677.59	0.373299
3687.23	0.373459
3696.87	0.372609
3706.51	0.373376
3716.16	0.374137
3725.8	0.374246
3735.44	0.374976
3745.08	0.375563
3754.72	0.375004
3764.37	0.375559
3774.01	0.375373
3783.65	0.375461
3793.29	0.375063
3802.94	0.376434
3812.58	0.375319
3822.22	0.377895
3831.86	0.377299
3841.51	0.37685
3851.15	0.379241
3860.79	0.377394
3870.43	0.377584
3880.07	0.377653
3889.72	0.378063
3899.36	0.377827
3909	0.376663
3918.64	0.378497
3928.29	0.377643
3937.93	0.378424
3947.57	0.379532
3957.21	0.37849
3966.86	0.378899
3976.5	0.378288
3986.14	0.377859
3995.78	0.37851
