Measurement: Infrared, Infrared Data Processed
Mineral: Wohlerite
Rruff sample: R060086
Ideal chemistry: NaCa_2_(Zr^4+^,Nb^5+^)(Si_2_O_7_)(O,F)_2_
Locality: Langesundfjord, Norway
Source: University of Arizona Mineral Museum
Description: Yellowish-brown fragment frozen in matrix
Measured chemistry: Na_1.00_(Ca_1.87_Fe^2+^_0.08_Mn_0.05_)_Σ=2_(Zr_0.52_Nb_0.41_Ti_0.06_Hf_0.01_)_Σ=1_Si_2.00_O_7_((OH)_1.15_O_0.78_F_0.70_)_Σ=2_
x	intensity
399.193	0.18369
408.835	0.172783
418.477	0.188977
428.12	0.173235
437.762	0.173474
447.404	0.181821
457.047	0.182686
466.689	0.218189
476.331	0.189236
485.974	0.154682
495.616	0.129323
505.258	0.104638
514.901	0.0952826
524.543	0.118395
534.185	0.140986
543.828	0.152051
553.47	0.163811
563.112	0.0942691
572.755	0.0604112
582.397	0.0620585
592.039	0.0537106
601.682	0.0728332
611.324	0.121139
620.966	0.138251
630.609	0.10891
640.251	0.0796407
649.893	0.0682906
659.536	0.0699008
669.178	0.0675033
678.82	0.0524003
688.463	0.0448519
698.105	0.0497143
707.747	0.0627053
717.39	0.080119
727.032	0.0891155
736.674	0.11052
746.317	0.176939
755.959	0.199658
765.601	0.122928
775.244	0.0858335
784.886	0.0919338
794.528	0.12424
804.171	0.180807
813.813	0.209035
823.455	0.185178
833.098	0.254368
842.74	0.334178
852.382	0.372125
862.025	0.375424
871.667	0.344736
881.309	0.310908
890.952	0.301484
900.594	0.279702
910.236	0.248574
919.879	0.224782
929.521	0.204968
939.163	0.192173
948.806	0.193839
958.448	0.175616
968.09	0.164881
977.733	0.179929
987.375	0.214136
997.017	0.206703
1006.66	0.197416
1016.3	0.190773
1025.94	0.15654
1035.59	0.138769
1045.23	0.14475
1054.87	0.134442
1064.51	0.116573
1074.16	0.0791484
1083.8	0.0473297
1093.44	0.0280682
1103.08	0.0190427
1112.72	0.0143383
1122.37	0.01165
1132.01	0.00974064
1141.65	0.00831294
1151.3	0.00709356
1160.94	0.00573697
1170.58	0.00473362
1180.22	0.00370426
1189.86	0.00288736
1199.51	0.00238819
1209.15	0.00204686
1218.79	0.00176571
1228.43	0.00156702
1238.08	0.00143652
1247.72	0.0014157
1257.36	0.00138355
1267	0.00166745
1276.64	0.00206155
1286.29	0.00230246
1295.93	0.00212605
1305.57	0.0022875
1315.21	0.00222341
1324.86	0.00260241
1334.5	0.0027895
1344.14	0.00338454
1353.78	0.00420825
1363.43	0.00498564
1373.07	0.00610309
1382.71	0.00766809
1392.35	0.00901891
1401.99	0.0101504
1411.64	0.0109163
1421.28	0.0104921
1430.92	0.0108565
1440.57	0.0107562
1450.21	0.0102491
1459.85	0.00962374
1469.49	0.0103049
1479.13	0.0114766
1488.78	0.0107777
1498.42	0.0107421
1508.06	0.00894116
1517.7	0.00948048
1527.35	0.00922386
1536.99	0.00826183
1546.63	0.00852817
1556.27	0.00647291
1565.91	0.00769481
1575.56	0.0052126
1585.2	0.00678874
1594.84	0.00673631
1604.48	0.00634852
1614.13	0.00556574
1623.77	0.00534329
1633.41	0.00545346
1643.05	0.00582549
1652.7	0.000977919
1662.34	0.00492004
1671.98	0.00465953
1681.62	0.00432222
1691.27	0.00521314
1700.91	0.0021429
1710.55	0.00460696
1720.19	0.00367176
1729.84	0.0036744
1739.48	0.00224159
1749.12	0.00195732
1758.76	0.0032979
1768.4	0.00316975
1778.05	0.00390192
1787.69	0.00418395
1797.33	0.00369258
1806.97	0.00400253
1816.62	0.00395605
1826.26	0.00417099
1835.9	0.00406384
1845.54	0.00361193
1855.18	0.00462343
1864.83	0.00431215
1874.47	0.00405757
1884.11	0.0042396
1893.75	0.00448643
1903.4	0.00444495
1913.04	0.00418394
1922.68	0.00403916
1932.32	0.0045373
1941.97	0.0039922
1951.61	0.00437777
1961.25	0.0045018
1970.89	0.0023323
1980.54	0.00590926
1990.18	0.00368114
1999.82	0.00429557
2009.46	0.00383184
2019.11	0.00346388
2028.75	0.0042387
2038.39	0.0046226
2048.03	0.00470412
2057.67	0.0051004
2067.32	0.00469587
2076.96	0.00514172
2086.6	0.00478414
2096.24	0.00517562
2105.89	0.00633957
2115.53	0.00509221
2125.17	0.00499558
2134.81	0.00415094
2144.45	0.00511133
2154.1	0.00646122
2163.74	0.00928642
2173.38	0.00926261
2183.02	0.0101855
2192.67	0.00968114
2202.31	0.00990971
2211.95	0.00988265
2221.59	0.00987344
2231.24	0.00974815
2240.88	0.0105658
2250.52	0.00961163
2260.16	0.00960958
2269.8	0.00994116
2279.45	0.0101225
2289.09	0.010213
2298.73	0.00894858
2308.38	0.00954992
2318.02	0.0101592
2327.66	0.0105677
2337.3	0.0102362
2346.94	0.0096694
2356.59	0.0106285
2366.23	0.0104415
2375.87	0.00908291
2385.51	0.00860747
2395.16	0.00840973
2404.8	0.00884216
2414.44	0.00956707
2424.08	0.00960408
2433.72	0.00948332
2443.37	0.00953689
2453.01	0.010171
2462.65	0.00959278
2472.29	0.00965047
2481.94	0.00990335
2491.58	0.00986784
2501.22	0.0100292
2510.86	0.0101563
2520.51	0.0101382
2530.15	0.0105808
2539.79	0.0105624
2549.43	0.0106228
2559.07	0.0110113
2568.72	0.0105864
2578.36	0.0107426
2588	0.0107435
2597.64	0.0112805
2607.29	0.0109375
2616.93	0.0114237
2626.57	0.0118642
2636.21	0.0116161
2645.86	0.0119788
2655.5	0.0118621
2665.14	0.0112158
2674.78	0.0111445
2684.43	0.0113592
2694.07	0.01159
2703.71	0.0117599
2713.35	0.012073
2722.99	0.0118634
2732.64	0.0122202
2742.28	0.012486
2751.92	0.0125713
2761.56	0.0126571
2771.21	0.0127831
2780.85	0.0124463
2790.49	0.012931
2800.13	0.0128649
2809.78	0.0133421
2819.42	0.0133142
2829.06	0.0137321
2838.7	0.0140117
2848.34	0.0121812
2857.99	0.0130948
2867.63	0.0135882
2877.27	0.0135972
2886.91	0.0137883
2896.56	0.0137497
2906.2	0.0133578
2915.84	0.0120655
2925.48	0.012462
2935.13	0.0131469
2944.77	0.0140402
2954.41	0.0140222
2964.05	0.0140176
2973.7	0.0139946
2983.34	0.014466
2992.98	0.0150434
3002.62	0.014609
3012.26	0.0150246
3021.91	0.0152127
3031.55	0.0148445
3041.19	0.0151743
3050.83	0.0154408
3060.48	0.0156766
3070.12	0.015445
3079.76	0.0162772
3089.4	0.0161643
3099.05	0.0161458
3108.69	0.0166752
3118.33	0.0166617
3127.97	0.0167848
3137.61	0.0172239
3147.26	0.0175509
3156.9	0.0174785
3166.54	0.0177045
3176.18	0.0179422
3185.83	0.0178219
3195.47	0.0176588
3205.11	0.0182065
3214.75	0.0188759
3224.4	0.0186424
3234.04	0.018755
3243.68	0.0191901
3253.32	0.0184449
3262.97	0.0187111
3272.61	0.018837
3282.25	0.0185112
3291.89	0.0189024
3301.53	0.0196067
3311.18	0.0188888
3320.82	0.0192407
3330.46	0.0189423
3340.1	0.0195129
3349.75	0.0188123
3359.39	0.0191323
3369.03	0.0191339
3378.67	0.0194011
3388.32	0.0188935
3397.96	0.0192174
3407.6	0.0176648
3417.24	0.018336
3426.89	0.0182896
3436.53	0.0183149
3446.17	0.0180345
3455.81	0.017341
3465.45	0.0181459
3475.1	0.017043
3484.74	0.0175863
3494.38	0.0174682
3504.02	0.0168711
3513.67	0.0172819
3523.31	0.01696
3532.95	0.0171512
3542.59	0.0157391
3552.24	0.0153177
3561.88	0.0157839
3571.52	0.0154907
3581.16	0.014319
3590.8	0.0136172
3600.45	0.0138982
3610.09	0.0120003
3619.73	0.0122238
3629.37	0.00894837
3639.02	0.0120797
3648.66	0.00796417
3658.3	0.0112968
3667.94	0.0105856
3677.59	0.00966125
3687.23	0.00773827
3696.87	0.012116
3706.51	0.0114847
3716.16	0.0115523
3725.8	0.0103764
3735.44	0.00765598
3745.08	0.00476842
3754.72	0.0101262
3764.37	0.0113957
3774.01	0.0119463
3783.65	0.011631
3793.29	0.0120142
3802.94	0.00899597
3812.58	0.0113931
3822.22	0.00908619
3831.86	0.0102018
3841.51	0.0100605
3851.15	0.00634943
3860.79	0.0113463
3870.43	0.00760628
3880.07	0.00955398
3889.72	0.0103197
3899.36	0.00966897
3909	0.0116741
3918.64	0.0116277
3928.29	0.0114135
3937.93	0.0113975
3947.57	0.0116191
3957.21	0.0119029
3966.86	0.0108371
3976.5	0.0113581
3986.14	0.0118727
3995.78	0.0105337
