Measurement: Infrared, Infrared Data Processed
Mineral: Wollastonite
Rruff sample: R040008
Ideal chemistry: CaSiO_3_
Locality: Lake Baikal, Siberia, Russia
Source: University of Arizona Mineral Museum
Description: 2M polytype. Colorless parallel acicular crystals
Measured chemistry: Ca_1.00_Si_1.00_O_3_; trace amounts of Fe and Mn
x	intensity
374.123	0.0554698
383.765	0.0748133
393.407	0.118558
403.05	0.0995684
412.692	0.0893264
422.334	0.103417
431.976	0.144504
441.619	0.19966
451.261	0.225291
460.904	0.19417
470.546	0.198489
480.188	0.15167
489.83	0.123538
499.473	0.0910991
509.115	0.0974987
518.758	0.0753538
528.4	0.056494
538.042	0.04587
547.684	0.0463573
557.327	0.0706608
566.969	0.0764013
576.611	0.0352889
586.254	0.0207703
595.896	0.0187374
605.538	0.0201787
615.181	0.0244865
624.823	0.03389
634.466	0.057147
644.108	0.0873278
653.75	0.0356461
663.393	0.0232279
673.035	0.0342505
682.677	0.0546365
692.319	0.028829
701.962	0.0177597
711.604	0.0213037
721.246	0.0184819
730.889	0.0198498
740.531	0.0224806
750.173	0.0246812
759.816	0.0273509
769.458	0.0313911
779.101	0.0360475
788.743	0.0417845
798.385	0.0491255
808.028	0.0576844
817.67	0.0685086
827.312	0.0832773
836.955	0.102487
846.597	0.129071
856.239	0.162094
865.881	0.209951
875.524	0.265594
885.166	0.280709
894.808	0.317967
904.451	0.295334
914.093	0.254523
923.736	0.238022
933.378	0.22032
943.02	0.189087
952.663	0.170964
962.305	0.169479
971.947	0.142474
981.59	0.0872673
991.232	0.105599
1000.87	0.166091
1010.52	0.211058
1020.16	0.192023
1029.8	0.166523
1039.44	0.132642
1049.09	0.142056
1058.73	0.174176
1068.37	0.143417
1078.01	0.105882
1087.65	0.090397
1097.3	0.0800353
1106.94	0.0623845
1116.58	0.043001
1126.22	0.0258914
1135.87	0.0148604
1145.51	0.0114844
1155.15	0.0101525
1164.79	0.00962434
1174.44	0.00884354
1184.08	0.00824728
1193.72	0.00742152
1203.36	0.00681769
1213.01	0.00641671
1222.65	0.00579644
1232.29	0.0055517
1241.93	0.00519754
1251.58	0.00499623
1261.22	0.00504223
1270.86	0.00496725
1280.5	0.00514081
1290.14	0.00529506
1299.79	0.0056908
1309.43	0.00643038
1319.07	0.00733922
1328.71	0.0080169
1338.36	0.00921456
1348	0.0107778
1357.64	0.0125471
1367.28	0.0147059
1376.92	0.0175464
1386.57	0.0218495
1396.21	0.0286361
1405.85	0.0353576
1415.49	0.0436092
1425.14	0.0475766
1434.78	0.049213
1444.42	0.0489601
1454.06	0.047549
1463.71	0.044086
1473.35	0.0403931
1482.99	0.035492
1492.63	0.0312303
1502.28	0.0265906
1511.92	0.0219856
1521.56	0.0182213
1531.2	0.015265
1540.85	0.0144327
1550.49	0.0127639
1560.13	0.0134231
1569.77	0.012677
1579.41	0.0124684
1589.06	0.0119388
1598.7	0.0114175
1608.34	0.010575
1617.98	0.00976967
1627.63	0.00874321
1637.27	0.00797989
1646.91	0.00712934
1656.55	0.00587926
1666.19	0.00499467
1675.84	0.00491381
1685.48	0.00512313
1695.12	0.00503038
1704.77	0.00448261
1714.41	0.00443174
1724.05	0.00427304
1733.69	0.00506209
1743.33	0.00385175
1752.98	0.00332681
1762.62	0.00335189
1772.26	0.00376998
1781.9	0.00352472
1791.55	0.00431802
1801.19	0.00394181
1810.83	0.00341914
1820.47	0.00324486
1830.12	0.0033436
1839.76	0.00340239
1849.4	0.00310832
1859.04	0.0029967
1868.68	0.00373856
1878.33	0.00347511
1887.97	0.0039865
1897.61	0.00437705
1907.25	0.00505784
1916.9	0.00491424
1926.54	0.00376731
1936.18	0.00489156
1945.82	0.0050376
1955.46	0.00494479
1965.11	0.00779719
1974.75	0.00846786
1984.39	0.00786195
1994.04	0.00740972
2003.68	0.00553089
2013.32	0.00498559
2022.96	0.00596378
2032.6	0.00653276
2042.25	0.00788263
2051.89	0.00693999
2061.53	0.00565687
2071.17	0.00541608
2080.82	0.00596431
2090.46	0.00558294
2100.1	0.00627718
2109.74	0.00572105
2119.39	0.00431224
2129.03	0.00430967
2138.67	0.0063079
2148.31	0.00601656
2157.95	0.00905089
2167.6	0.0105574
2177.24	0.00904615
2186.88	0.00820606
2196.52	0.00941042
2206.17	0.00881756
2215.81	0.00862643
2225.45	0.00880141
2235.09	0.00882589
2244.74	0.00869409
2254.38	0.00886401
2264.02	0.00851806
2273.66	0.0087139
2283.3	0.00921928
2292.95	0.0084274
2302.59	0.00756316
2312.23	0.00788056
2321.87	0.00852986
2331.52	0.0075108
2341.16	0.00718245
2350.8	0.00704194
2360.44	0.0077243
2370.09	0.00700301
2379.73	0.00629471
2389.37	0.00688895
2399.01	0.00634182
2408.66	0.0071169
2418.3	0.00667478
2427.94	0.00667486
2437.58	0.00654606
2447.22	0.00700808
2456.87	0.00713629
2466.51	0.00728498
2476.15	0.00730434
2485.79	0.00642746
2495.44	0.00747349
2505.08	0.00784313
2514.72	0.00747954
2524.36	0.0077426
2534.01	0.00736148
2543.65	0.00702523
2553.29	0.00738249
2562.93	0.00786275
2572.57	0.00791157
2582.22	0.00787833
2591.86	0.00779319
2601.5	0.00821559
2611.14	0.00828048
2620.79	0.00805928
2630.43	0.00805103
2640.07	0.00824663
2649.71	0.00840579
2659.36	0.00761595
2669	0.00736839
2678.64	0.00756689
2688.28	0.00773682
2697.93	0.00767363
2707.57	0.00756737
2717.21	0.0074918
2726.85	0.00753896
2736.49	0.00786124
2746.14	0.00771609
2755.78	0.00760153
2765.42	0.00764561
2775.06	0.00772211
2784.71	0.0079103
2794.35	0.00817355
2803.99	0.00797604
2813.63	0.00840522
2823.28	0.00807877
2832.92	0.00856977
2842.56	0.00883899
2852.2	0.00898317
2861.84	0.0088223
2871.49	0.0089832
2881.13	0.00914181
2890.77	0.00945058
2900.41	0.00935817
2910.06	0.00972852
2919.7	0.0101543
2929.34	0.0100767
2938.98	0.00949465
2948.62	0.00943889
2958.27	0.0107478
2967.91	0.00974821
2977.55	0.00950753
2987.2	0.00874442
2996.84	0.0094
3006.48	0.00941119
3016.12	0.00877854
3025.76	0.00907369
3035.41	0.00934012
3045.05	0.00922938
3054.69	0.00942303
3064.33	0.00962756
3073.98	0.00988319
3083.62	0.0103015
3093.26	0.00997871
3102.9	0.0104723
3112.55	0.0105836
3122.19	0.0101385
3131.83	0.0106315
3141.47	0.0107614
3151.11	0.0104568
3160.76	0.0103059
3170.4	0.0106706
3180.04	0.0110627
3189.68	0.0114918
3199.33	0.0112567
3208.97	0.0114266
3218.61	0.0116066
3228.25	0.0120126
3237.9	0.01178
3247.54	0.0117472
3257.18	0.0119755
3266.82	0.0114503
3276.47	0.0118985
3286.11	0.0119343
3295.75	0.0120075
3305.39	0.0119321
3315.03	0.0120912
3324.68	0.0121286
3334.32	0.0112753
3343.96	0.0112721
3353.6	0.0122423
3363.25	0.0116723
3372.89	0.0126621
3382.53	0.0119851
3392.17	0.0118478
3401.82	0.0119496
3411.46	0.0116575
3421.1	0.0121128
3430.74	0.011182
3440.39	0.0116278
3450.03	0.0118394
3459.67	0.01148
3469.31	0.0119582
3478.95	0.012365
3488.6	0.0112129
3498.24	0.0118129
3507.88	0.010781
3517.52	0.0108477
3527.17	0.0112005
3536.81	0.0114536
3546.45	0.0115658
3556.09	0.0118474
3565.74	0.0112045
3575.38	0.0106743
3585.02	0.0107167
3594.66	0.0100982
3604.3	0.00990291
3613.95	0.00995133
3623.59	0.0103682
3633.23	0.00969675
3642.87	0.00888061
3652.52	0.00996305
3662.16	0.00885539
3671.8	0.0103874
3681.44	0.0100172
3691.09	0.00970403
3700.73	0.00941967
3710.37	0.0103263
3720.01	0.00861476
3729.66	0.00991812
3739.3	0.00976195
3748.94	0.0106181
3758.58	0.00920507
3768.22	0.00996536
3777.87	0.0088306
3787.51	0.00878765
3797.15	0.00912539
3806.79	0.0099425
3816.44	0.010158
3826.08	0.00882562
3835.72	0.0104183
3845.36	0.00860585
3855.01	0.0102621
3864.65	0.00914003
3874.29	0.00988692
3883.93	0.0103006
3893.57	0.00875718
3903.22	0.00887286
3912.86	0.00949831
3922.5	0.00862305
3932.14	0.00944064
3941.79	0.00796507
3951.43	0.00894735
3961.07	0.00871437
3970.71	0.00943241
3980.36	0.00857973
3990	0.00929777
3999.64	0.00872007
