Measurement: Infrared, Infrared Data Processed
Mineral: Wulfenite
Rruff sample: R050024
Ideal chemistry: Pb^2+^Mo^6+^O_4_
Locality: Old Yuma mine, Tucson, Arizona, USA
Source: Eugene Schlepp
Description: Orange flat tabular crystals
x	intensity
399.193	0.149776
408.835	0.170808
418.477	0.193178
428.12	0.211128
437.762	0.236835
447.404	0.254946
457.047	0.270412
466.689	0.286915
476.331	0.303257
485.974	0.317645
495.616	0.335971
505.258	0.354293
514.901	0.370254
524.543	0.3829
534.185	0.401219
543.828	0.412507
553.47	0.430677
563.112	0.441753
572.755	0.458456
582.397	0.474069
592.039	0.490782
601.682	0.50495
611.324	0.525458
620.966	0.544177
630.609	0.564222
640.251	0.58544
649.893	0.605916
659.536	0.624202
669.178	0.639948
678.82	0.650718
688.463	0.662019
698.105	0.675874
707.747	0.69045
717.39	0.699776
727.032	0.692005
736.674	0.666222
746.317	0.601219
755.959	0.495168
765.601	0.433485
775.244	0.381537
784.886	0.332956
794.528	0.290548
804.171	0.259983
813.813	0.235373
823.455	0.209221
833.098	0.180591
842.74	0.142946
852.382	0.110949
862.025	0.0822715
871.667	0.0565415
881.309	0.027601
890.952	0.0155055
900.594	0.0133366
910.236	0.0127876
919.879	0.0125284
929.521	0.0118993
939.163	0.0106328
948.806	0.0103697
958.448	0.00943176
968.09	0.00819715
977.733	0.0082854
987.375	0.00873854
997.017	0.0094846
1006.66	0.010645
1016.3	0.0125293
1025.94	0.0140893
1035.59	0.0158749
1045.23	0.0182179
1054.87	0.020546
1064.51	0.0207198
1074.16	0.0223308
1083.8	0.0245464
1093.44	0.0265325
1103.08	0.0291709
1112.72	0.0311159
1122.37	0.0321157
1132.01	0.0338352
1141.65	0.0356736
1151.3	0.0377242
1160.94	0.04005
1170.58	0.0424263
1180.22	0.0449449
1189.86	0.0476668
1199.51	0.049843
1209.15	0.0526232
1218.79	0.0547687
1228.43	0.0574762
1238.08	0.0604602
1247.72	0.0635675
1257.36	0.0673421
1267	0.0716919
1276.64	0.0774437
1286.29	0.0800176
1295.93	0.0834065
1305.57	0.0877662
1315.21	0.0918874
1324.86	0.0954989
1334.5	0.0997805
1344.14	0.10434
1353.78	0.110212
1363.43	0.117684
1373.07	0.12898
1382.71	0.144767
1392.35	0.163415
1401.99	0.174769
1411.64	0.17269
1421.28	0.16951
1430.92	0.175397
1440.57	0.177134
1450.21	0.168746
1459.85	0.157976
1469.49	0.149968
1479.13	0.145113
1488.78	0.140877
1498.42	0.138544
1508.06	0.133598
1517.7	0.136912
1527.35	0.139321
1536.99	0.139896
1546.63	0.142033
1556.27	0.13905
1565.91	0.143985
1575.56	0.142099
1585.2	0.150899
1594.84	0.154253
1604.48	0.159978
1614.13	0.160355
1623.77	0.156297
1633.41	0.154393
1643.05	0.156291
1652.7	0.147588
1662.34	0.158661
1671.98	0.160015
1681.62	0.161284
1691.27	0.165877
1700.91	0.161404
1710.55	0.171149
1720.19	0.173079
1729.84	0.177284
1739.48	0.173079
1749.12	0.170812
1758.76	0.174858
1768.4	0.176752
1778.05	0.179627
1787.69	0.182175
1797.33	0.183709
1806.97	0.186467
1816.62	0.188525
1826.26	0.190461
1835.9	0.193905
1845.54	0.193391
1855.18	0.197621
1864.83	0.199637
1874.47	0.201306
1884.11	0.204635
1893.75	0.205437
1903.4	0.208471
1913.04	0.208861
1922.68	0.212265
1932.32	0.21487
1941.97	0.2172
1951.61	0.218351
1961.25	0.22249
1970.89	0.224762
1980.54	0.227758
1990.18	0.225088
1999.82	0.227568
2009.46	0.229938
2019.11	0.229611
2028.75	0.233148
2038.39	0.235009
2048.03	0.23519
2057.67	0.23668
2067.32	0.239038
2076.96	0.240986
2086.6	0.241061
2096.24	0.243794
2105.89	0.244178
2115.53	0.246483
2125.17	0.245368
2134.81	0.249415
2144.45	0.249955
2154.1	0.251148
2163.74	0.255215
2173.38	0.254803
2183.02	0.256918
2192.67	0.260858
2202.31	0.261597
2211.95	0.260148
2221.59	0.263341
2231.24	0.263581
2240.88	0.266191
2250.52	0.267532
2260.16	0.268042
2269.8	0.269197
2279.45	0.270486
2289.09	0.273203
2298.73	0.272591
2308.38	0.273943
2318.02	0.276249
2327.66	0.277221
2337.3	0.278792
2346.94	0.279241
2356.59	0.282368
2366.23	0.283843
2375.87	0.282947
2385.51	0.28405
2395.16	0.287031
2404.8	0.289144
2414.44	0.289591
2424.08	0.290756
2433.72	0.293489
2443.37	0.294311
2453.01	0.293809
2462.65	0.294616
2472.29	0.296605
2481.94	0.298431
2491.58	0.298916
2501.22	0.301516
2510.86	0.302642
2520.51	0.302976
2530.15	0.30575
2539.79	0.30604
2549.43	0.307762
2559.07	0.309243
2568.72	0.31007
2578.36	0.311137
2588	0.311427
2597.64	0.313472
2607.29	0.315311
2616.93	0.315844
2626.57	0.317229
2636.21	0.317081
2645.86	0.317498
2655.5	0.31824
2665.14	0.320422
2674.78	0.320024
2684.43	0.323502
2694.07	0.324014
2703.71	0.325864
2713.35	0.326063
2722.99	0.328154
2732.64	0.329441
2742.28	0.330369
2751.92	0.331469
2761.56	0.332225
2771.21	0.333672
2780.85	0.335475
2790.49	0.335439
2800.13	0.33829
2809.78	0.340292
2819.42	0.341359
2829.06	0.341836
2838.7	0.344972
2848.34	0.344728
2857.99	0.346382
2867.63	0.346077
2877.27	0.34895
2886.91	0.350488
2896.56	0.352171
2906.2	0.354172
2915.84	0.353903
2925.48	0.354652
2935.13	0.354331
2944.77	0.355781
2954.41	0.357502
2964.05	0.359081
2973.7	0.357734
2983.34	0.361777
2992.98	0.362633
3002.62	0.363964
3012.26	0.365678
3021.91	0.366002
3031.55	0.366744
3041.19	0.368324
3050.83	0.373754
3060.48	0.373477
3070.12	0.372954
3079.76	0.37572
3089.4	0.374914
3099.05	0.376274
3108.69	0.380065
3118.33	0.379924
3127.97	0.383396
3137.61	0.383068
3147.26	0.385695
3156.9	0.388297
3166.54	0.387672
3176.18	0.38841
3185.83	0.390683
3195.47	0.390471
3205.11	0.391522
3214.75	0.391251
3224.4	0.394687
3234.04	0.395394
3243.68	0.394702
3253.32	0.398405
3262.97	0.402179
3272.61	0.399908
3282.25	0.399885
3291.89	0.404325
3301.53	0.403685
3311.18	0.407672
3320.82	0.406137
3330.46	0.408235
3340.1	0.407814
3349.75	0.410208
3359.39	0.410272
3369.03	0.414689
3378.67	0.415509
3388.32	0.414013
3397.96	0.416462
3407.6	0.420418
3417.24	0.415879
3426.89	0.421627
3436.53	0.4235
3446.17	0.421886
3455.81	0.422586
3465.45	0.42534
3475.1	0.422422
3484.74	0.428091
3494.38	0.430485
3504.02	0.425849
3513.67	0.431156
3523.31	0.431963
3532.95	0.434095
3542.59	0.43393
3552.24	0.436797
3561.88	0.434742
3571.52	0.435883
3581.16	0.436331
3590.8	0.438271
3600.45	0.44381
3610.09	0.44029
3619.73	0.440574
3629.37	0.435056
3639.02	0.449722
3648.66	0.436379
3658.3	0.449648
3667.94	0.448428
3677.59	0.450142
3687.23	0.445545
3696.87	0.456993
3706.51	0.457425
3716.16	0.45638
3725.8	0.455152
3735.44	0.454472
3745.08	0.446453
3754.72	0.460563
3764.37	0.462753
3774.01	0.46839
3783.65	0.466517
3793.29	0.474187
3802.94	0.470635
3812.58	0.474274
3822.22	0.469384
3831.86	0.474015
3841.51	0.47234
3851.15	0.466252
3860.79	0.479735
3870.43	0.472648
3880.07	0.479867
3889.72	0.477337
3899.36	0.481787
3909	0.484135
3918.64	0.4855
3928.29	0.495552
3937.93	0.493464
3947.57	0.488603
3957.21	0.495478
3966.86	0.49314
3976.5	0.496355
3986.14	0.50294
3995.78	0.49941
