Measurement: Infrared, Infrared Data Processed
Mineral: Xenotime-(Y)
Rruff sample: R050178
Ideal chemistry: Y^3+^PO_4_
Locality: Novo Horizonte, Bahia, Brazil
Source: Marcus Origlieri
Description: Brown crystal fragments
Measured chemistry: (Y_0.74_Dy_0.09_Gd_0.06_Er_0.04_Yb_0.02_Ho_0.01_Tb_0.01_Sm_0.01_Eu_0.01_)_Σ=1.00_(P_0.97_As_0.02_Si_0.01_)_Σ=1.00_O_4_
x	intensity
374.123	0.0694899
383.765	0.0456097
393.407	0.034518
403.05	0.023354
412.692	0.0271072
422.334	0.0151237
431.976	0.0127515
441.619	0.0156138
451.261	0.0187858
460.904	0.022383
470.546	0.0294088
480.188	0.0424716
489.83	0.0525533
499.473	0.0755966
509.115	0.119675
518.758	0.186756
528.4	0.119454
538.042	0.0429657
547.684	0.0220351
557.327	0.0219407
566.969	0.0220984
576.611	0.0238299
586.254	0.03022
595.896	0.0366685
605.538	0.0481389
615.181	0.0654984
624.823	0.0937845
634.466	0.142512
644.108	0.130273
653.75	0.0716504
663.393	0.0329805
673.035	0.0252739
682.677	0.0248351
692.319	0.0249536
701.962	0.0272758
711.604	0.0307273
721.246	0.0335804
730.889	0.0352086
740.531	0.0366472
750.173	0.0385807
759.816	0.0426689
769.458	0.0473316
779.101	0.0531163
788.743	0.0586781
798.385	0.0659429
808.028	0.0727203
817.67	0.0804255
827.312	0.0890507
836.955	0.100938
846.597	0.109747
856.239	0.125722
865.881	0.122625
875.524	0.121534
885.166	0.138565
894.808	0.155729
904.451	0.168264
914.093	0.174955
923.736	0.193981
933.378	0.214914
943.02	0.235072
952.663	0.253834
962.305	0.269129
971.947	0.285755
981.59	0.296411
991.232	0.300614
1000.87	0.294347
1010.52	0.280313
1020.16	0.262416
1029.8	0.248558
1039.44	0.231461
1049.09	0.217447
1058.73	0.20746
1068.37	0.186722
1078.01	0.158625
1087.65	0.132353
1097.3	0.107455
1106.94	0.0846912
1116.58	0.0685075
1126.22	0.0604432
1135.87	0.0511473
1145.51	0.0412991
1155.15	0.0314129
1164.79	0.0223574
1174.44	0.0147991
1184.08	0.0108593
1193.72	0.00804564
1203.36	0.00592339
1213.01	0.00439361
1222.65	0.0030576
1232.29	0.00212322
1241.93	0.00173726
1251.58	0.00150943
1261.22	0.00141908
1270.86	0.00150792
1280.5	0.00164477
1290.14	0.00171033
1299.79	0.00196226
1309.43	0.00222906
1319.07	0.00231393
1328.71	0.00254975
1338.36	0.00261901
1348	0.00294761
1357.64	0.00345069
1367.28	0.00437703
1376.92	0.00551812
1386.57	0.00738885
1396.21	0.00932713
1405.85	0.00979434
1415.49	0.00940487
1425.14	0.00949892
1434.78	0.0103463
1444.42	0.0102547
1454.06	0.00933235
1463.71	0.00807673
1473.35	0.0071215
1482.99	0.00611074
1492.63	0.00538012
1502.28	0.00524964
1511.92	0.00503934
1521.56	0.0052691
1531.2	0.00534505
1540.85	0.00537444
1550.49	0.00535307
1560.13	0.00549789
1569.77	0.00555325
1579.41	0.00533891
1589.06	0.0053498
1598.7	0.00550197
1608.34	0.00534892
1617.98	0.00552781
1627.63	0.0056651
1637.27	0.0058478
1646.91	0.00615935
1656.55	0.00607424
1666.19	0.00634205
1675.84	0.00630165
1685.48	0.00620862
1695.12	0.00641368
1704.77	0.00642528
1714.41	0.00643487
1724.05	0.00630025
1733.69	0.00654369
1743.33	0.00600406
1752.98	0.00611546
1762.62	0.00630158
1772.26	0.00653236
1781.9	0.0066789
1791.55	0.0065813
1801.19	0.00660206
1810.83	0.00678497
1820.47	0.00714853
1830.12	0.00717921
1839.76	0.00695688
1849.4	0.00717372
1859.04	0.00724978
1868.68	0.00684681
1878.33	0.00680123
1887.97	0.00719071
1897.61	0.00714941
1907.25	0.00748339
1916.9	0.00756752
1926.54	0.00716029
1936.18	0.00703741
1945.82	0.00730476
1955.46	0.00707167
1965.11	0.00743413
1974.75	0.00839276
1984.39	0.00941478
1994.04	0.00901451
2003.68	0.00894555
2013.32	0.0109507
2022.96	0.00989971
2032.6	0.0114779
2042.25	0.0114652
2051.89	0.0110667
2061.53	0.00989473
2071.17	0.0107052
2080.82	0.0106138
2090.46	0.00998638
2100.1	0.0112365
2109.74	0.0108566
2119.39	0.0108056
2129.03	0.0103002
2138.67	0.00999633
2148.31	0.0121142
2157.95	0.011542
2167.6	0.0140319
2177.24	0.0139917
2186.88	0.0148768
2196.52	0.0137432
2206.17	0.0136331
2215.81	0.0149877
2225.45	0.0141162
2235.09	0.0141175
2244.74	0.0141536
2254.38	0.0148928
2264.02	0.0145311
2273.66	0.0152343
2283.3	0.0157988
2292.95	0.0147347
2302.59	0.0150575
2312.23	0.0145543
2321.87	0.0152972
2331.52	0.0135186
2341.16	0.0136437
2350.8	0.0142648
2360.44	0.0134892
2370.09	0.0137576
2379.73	0.0147264
2389.37	0.0149997
2399.01	0.0149678
2408.66	0.0153531
2418.3	0.0156618
2427.94	0.0160651
2437.58	0.0156647
2447.22	0.0154749
2456.87	0.0162258
2466.51	0.0158322
2476.15	0.0162137
2485.79	0.0157097
2495.44	0.015766
2505.08	0.0159981
2514.72	0.0162646
2524.36	0.0158489
2534.01	0.0158562
2543.65	0.0164873
2553.29	0.0161831
2562.93	0.0168086
2572.57	0.0174068
2582.22	0.0172572
2591.86	0.0175045
2601.5	0.0176861
2611.14	0.0178132
2620.79	0.0177943
2630.43	0.0180781
2640.07	0.0180349
2649.71	0.0181403
2659.36	0.0178086
2669	0.0177691
2678.64	0.0175607
2688.28	0.0174734
2697.93	0.0180374
2707.57	0.0181115
2717.21	0.0181705
2726.85	0.0182933
2736.49	0.0184248
2746.14	0.0180639
2755.78	0.0185644
2765.42	0.0188854
2775.06	0.0188289
2784.71	0.0188947
2794.35	0.0185939
2803.99	0.018749
2813.63	0.0188557
2823.28	0.0190718
2832.92	0.0194013
2842.56	0.0197853
2852.2	0.0193818
2861.84	0.0196451
2871.49	0.0194936
2881.13	0.0195535
2890.77	0.0197909
2900.41	0.0201796
2910.06	0.0201733
2919.7	0.0196999
2929.34	0.0204606
2938.98	0.0199173
2948.62	0.0199707
2958.27	0.0197736
2967.91	0.0196409
2977.55	0.0198423
2987.2	0.0194706
2996.84	0.0202898
3006.48	0.0202217
3016.12	0.0189478
3025.76	0.0204663
3035.41	0.0200462
3045.05	0.020241
3054.69	0.0206815
3064.33	0.0202729
3073.98	0.0210259
3083.62	0.0208115
3093.26	0.0209063
3102.9	0.0212511
3112.55	0.0207731
3122.19	0.0209772
3131.83	0.0217338
3141.47	0.0209387
3151.11	0.0218388
3160.76	0.0221467
3170.4	0.0223366
3180.04	0.0217654
3189.68	0.0222269
3199.33	0.0218371
3208.97	0.0224159
3218.61	0.0217344
3228.25	0.0228477
3237.9	0.0226111
3247.54	0.0224366
3257.18	0.0224988
3266.82	0.0229869
3276.47	0.0228128
3286.11	0.0231002
3295.75	0.0223611
3305.39	0.0229786
3315.03	0.023145
3324.68	0.0225954
3334.32	0.0232291
3343.96	0.023121
3353.6	0.0237366
3363.25	0.0234637
3372.89	0.0230494
3382.53	0.0231864
3392.17	0.0235337
3401.82	0.0236791
3411.46	0.0227384
3421.1	0.0228042
3430.74	0.0234167
3440.39	0.0231446
3450.03	0.0240914
3459.67	0.0232928
3469.31	0.0233752
3478.95	0.0234327
3488.6	0.0227673
3498.24	0.0230278
3507.88	0.0233587
3517.52	0.023231
3527.17	0.0238693
3536.81	0.0237061
3546.45	0.0234506
3556.09	0.0237991
3565.74	0.0231881
3575.38	0.0234211
3585.02	0.0233828
3594.66	0.0224564
3604.3	0.0230228
3613.95	0.0236141
3623.59	0.0238962
3633.23	0.0249587
3642.87	0.0232491
3652.52	0.0235079
3662.16	0.0238279
3671.8	0.023753
3681.44	0.0227381
3691.09	0.023417
3700.73	0.0246797
3710.37	0.0241106
3720.01	0.0246617
3729.66	0.023907
3739.3	0.0245182
3748.94	0.0249133
3758.58	0.0245913
3768.22	0.0243293
3777.87	0.0245478
3787.51	0.024068
3797.15	0.0254486
3806.79	0.0248599
3816.44	0.0244244
3826.08	0.0242119
3835.72	0.0241633
3845.36	0.0237611
3855.01	0.0251358
3864.65	0.0244714
3874.29	0.0250637
3883.93	0.0251148
3893.57	0.0254918
3903.22	0.0244428
3912.86	0.0257442
3922.5	0.0257757
3932.14	0.0248123
3941.79	0.0246678
3951.43	0.0256427
3961.07	0.0253121
3970.71	0.025857
3980.36	0.0254432
3990	0.0262915
3999.64	0.0250767
