Measurement: Infrared, Infrared Data Processed
Mineral: Yttrotungstite-(Y)
Rruff sample: R050569
Ideal chemistry: Y^3+^W^6+^_2_O_6_(OH)_3_
Locality: Perak, Malaysia
Source: University of Arizona Mineral Museum
Description: Colorless flattened lathlike crystals
Measured chemistry: (Y_0.70_Nd_0.10_Ce_0.07_Dy_0.07_La_0.04_Ca_0.02_)_Σ=1_W_2.00_(O_6.00_(OH)_2.98_(H_2_O)_0.02_)_Σ=9_ ; O, OH and H_2_O estimated by difference and charge balance.
x	intensity
399.193	0.172211
408.835	0.191791
418.477	0.224475
428.12	0.252863
437.762	0.263244
447.404	0.271105
457.047	0.261539
466.689	0.265301
476.331	0.243009
485.974	0.206836
495.616	0.191474
505.258	0.203414
514.901	0.231364
524.543	0.252259
534.185	0.260316
543.828	0.248696
553.47	0.237209
563.112	0.223157
572.755	0.194867
582.397	0.170379
592.039	0.154105
601.682	0.142458
611.324	0.138044
620.966	0.13844
630.609	0.1365
640.251	0.127928
649.893	0.123196
659.536	0.127534
669.178	0.141323
678.82	0.166074
688.463	0.200233
698.105	0.219522
707.747	0.229417
717.39	0.237148
727.032	0.237054
736.674	0.227261
746.317	0.211502
755.959	0.191934
765.601	0.178989
775.244	0.180099
784.886	0.195668
794.528	0.21967
804.171	0.228654
813.813	0.205743
823.455	0.180629
833.098	0.203126
842.74	0.25105
852.382	0.233986
862.025	0.190493
871.667	0.159247
881.309	0.156302
890.952	0.183161
900.594	0.237464
910.236	0.283125
919.879	0.254241
929.521	0.212231
939.163	0.1833
948.806	0.158859
958.448	0.121984
968.09	0.087912
977.733	0.0848802
987.375	0.100248
997.017	0.116741
1006.66	0.132331
1016.3	0.139219
1025.94	0.142408
1035.59	0.133357
1045.23	0.106931
1054.87	0.0858895
1064.51	0.0786278
1074.16	0.0752599
1083.8	0.071454
1093.44	0.0645968
1103.08	0.057426
1112.72	0.0510628
1122.37	0.0423489
1132.01	0.0339146
1141.65	0.0273267
1151.3	0.0232659
1160.94	0.021518
1170.58	0.0198016
1180.22	0.0180613
1189.86	0.0162745
1199.51	0.0152484
1209.15	0.0145062
1218.79	0.0136643
1228.43	0.0141017
1238.08	0.0134579
1247.72	0.0133681
1257.36	0.0129468
1267	0.0134168
1276.64	0.0134711
1286.29	0.0136624
1295.93	0.0135777
1305.57	0.0131156
1315.21	0.0131982
1324.86	0.0131832
1334.5	0.0131504
1344.14	0.0135274
1353.78	0.014214
1363.43	0.0147809
1373.07	0.0152312
1382.71	0.0157834
1392.35	0.0162593
1401.99	0.0170003
1411.64	0.0178945
1421.28	0.0186563
1430.92	0.0190839
1440.57	0.0200119
1450.21	0.0218598
1459.85	0.0232084
1469.49	0.0241974
1479.13	0.0253534
1488.78	0.0262131
1498.42	0.0261623
1508.06	0.025983
1517.7	0.0249278
1527.35	0.0245222
1536.99	0.0232961
1546.63	0.0232303
1556.27	0.0235811
1565.91	0.0243886
1575.56	0.0255895
1585.2	0.0262216
1594.84	0.0269377
1604.48	0.0294777
1614.13	0.0323915
1623.77	0.0352849
1633.41	0.0378211
1643.05	0.0419548
1652.7	0.0449327
1662.34	0.0405432
1671.98	0.0321981
1681.62	0.0267277
1691.27	0.0240361
1700.91	0.0241803
1710.55	0.0234204
1720.19	0.0229184
1729.84	0.0233125
1739.48	0.023462
1749.12	0.023173
1758.76	0.023
1768.4	0.0225565
1778.05	0.023535
1787.69	0.0228125
1797.33	0.0244461
1806.97	0.0230275
1816.62	0.0232484
1826.26	0.0237152
1835.9	0.0234399
1845.54	0.0240158
1855.18	0.0240524
1864.83	0.0240045
1874.47	0.0237817
1884.11	0.0244054
1893.75	0.0253697
1903.4	0.0236011
1913.04	0.0235111
1922.68	0.0226486
1932.32	0.0227885
1941.97	0.0244767
1951.61	0.0238429
1961.25	0.0228626
1970.89	0.0188812
1980.54	0.0231625
1990.18	0.0243316
1999.82	0.0225754
2009.46	0.0237234
2019.11	0.0204129
2028.75	0.0210916
2038.39	0.0229717
2048.03	0.025424
2057.67	0.0276818
2067.32	0.0302562
2076.96	0.0281857
2086.6	0.0299163
2096.24	0.0297792
2105.89	0.0326082
2115.53	0.0296347
2125.17	0.031684
2134.81	0.0284785
2144.45	0.0304276
2154.1	0.0254391
2163.74	0.0297329
2173.38	0.0291727
2183.02	0.0287518
2192.67	0.0313548
2202.31	0.0318821
2211.95	0.0301526
2221.59	0.0335959
2231.24	0.0356705
2240.88	0.0337072
2250.52	0.036647
2260.16	0.0372125
2269.8	0.0392771
2279.45	0.0390032
2289.09	0.0389625
2298.73	0.0412434
2308.38	0.0408125
2318.02	0.0431632
2327.66	0.043845
2337.3	0.0427332
2346.94	0.0423735
2356.59	0.0430519
2366.23	0.0423914
2375.87	0.0418724
2385.51	0.0407001
2395.16	0.041323
2404.8	0.0423979
2414.44	0.0429492
2424.08	0.041836
2433.72	0.0439684
2443.37	0.0446551
2453.01	0.0434433
2462.65	0.0445578
2472.29	0.045788
2481.94	0.0448056
2491.58	0.0444706
2501.22	0.0463334
2510.86	0.0455209
2520.51	0.046024
2530.15	0.0483455
2539.79	0.0473938
2549.43	0.0480223
2559.07	0.0497461
2568.72	0.0503955
2578.36	0.0494559
2588	0.0521123
2597.64	0.0511498
2607.29	0.0522542
2616.93	0.0521989
2626.57	0.0527725
2636.21	0.0548599
2645.86	0.0555393
2655.5	0.0558003
2665.14	0.0552767
2674.78	0.0578307
2684.43	0.0568078
2694.07	0.0572232
2703.71	0.058324
2713.35	0.0599727
2722.99	0.0611478
2732.64	0.0610562
2742.28	0.0613927
2751.92	0.0623242
2761.56	0.0640331
2771.21	0.0646615
2780.85	0.0645759
2790.49	0.0652491
2800.13	0.0683212
2809.78	0.0680241
2819.42	0.0697762
2829.06	0.0712901
2838.7	0.0710103
2848.34	0.0730674
2857.99	0.0733412
2867.63	0.0747761
2877.27	0.0773051
2886.91	0.0770643
2896.56	0.0800171
2906.2	0.0796576
2915.84	0.0827393
2925.48	0.0841852
2935.13	0.0833938
2944.77	0.0855705
2954.41	0.0865381
2964.05	0.0855132
2973.7	0.0885867
2983.34	0.08784
2992.98	0.0876895
3002.62	0.0875158
3012.26	0.0869368
3021.91	0.0874689
3031.55	0.085863
3041.19	0.085653
3050.83	0.0860502
3060.48	0.0856155
3070.12	0.0833009
3079.76	0.0811182
3089.4	0.0812746
3099.05	0.0811618
3108.69	0.0819788
3118.33	0.0792524
3127.97	0.0789629
3137.61	0.0802445
3147.26	0.0778998
3156.9	0.0777678
3166.54	0.0812393
3176.18	0.0786
3185.83	0.0778721
3195.47	0.0779819
3205.11	0.0779729
3214.75	0.0807811
3224.4	0.0778813
3234.04	0.0782153
3243.68	0.0786528
3253.32	0.079874
3262.97	0.0804844
3272.61	0.0790773
3282.25	0.0830284
3291.89	0.082327
3301.53	0.0806866
3311.18	0.078822
3320.82	0.0822276
3330.46	0.0810523
3340.1	0.0839033
3349.75	0.0795218
3359.39	0.0841097
3369.03	0.0798493
3378.67	0.0796451
3388.32	0.0846251
3397.96	0.0827926
3407.6	0.0870539
3417.24	0.083759
3426.89	0.0893501
3436.53	0.091054
3446.17	0.0947546
3455.81	0.0995736
3465.45	0.107658
3475.1	0.113783
3484.74	0.127785
3494.38	0.145427
3504.02	0.168676
3513.67	0.174724
3523.31	0.118245
3532.95	0.0821456
3542.59	0.0642844
3552.24	0.0586822
3561.88	0.0586268
3571.52	0.0567356
3581.16	0.0572268
3590.8	0.0616887
3600.45	0.0630274
3610.09	0.0722651
3619.73	0.0721132
3629.37	0.0690658
3639.02	0.066114
3648.66	0.0637633
3658.3	0.0634705
3667.94	0.0615485
3677.59	0.0600618
3687.23	0.0637593
3696.87	0.0608929
3706.51	0.0604868
3716.16	0.0582301
3725.8	0.0531982
3735.44	0.0567265
3745.08	0.0538117
3754.72	0.056792
3764.37	0.058552
3774.01	0.0558544
3783.65	0.0610921
3793.29	0.0570874
3802.94	0.063183
3812.58	0.0580668
3822.22	0.0573046
3831.86	0.0610619
3841.51	0.0605987
3851.15	0.0614072
3860.79	0.0624507
3870.43	0.0626014
3880.07	0.0589648
3889.72	0.0655111
3899.36	0.0663975
3909	0.0622417
3918.64	0.0649788
3928.29	0.0613612
3937.93	0.0615434
3947.57	0.0630755
3957.21	0.0611476
3966.86	0.0654804
3976.5	0.0692132
3986.14	0.0654445
3995.78	0.0642625
