Measurement: Infrared, Infrared Data Processed
Mineral: Yugawaralite
Rruff sample: R050407
Ideal chemistry: Ca(Si_6_Al_2_)O_16_4H_2_O
Locality: Malad quarry, Mumbai, Maharashtra, India
Source: G.R. Rossman
Description: Group of colorless flat tabular crystals
Measured chemistry: Ca_1.00_(Si_6.00_Al_2.00_)O_16_Â·4H_2_O
x	intensity
399.193	0.243422
408.835	0.253326
418.477	0.278853
428.12	0.23665
437.762	0.19542
447.404	0.192755
457.047	0.188868
466.689	0.198694
476.331	0.178594
485.974	0.148718
495.616	0.117326
505.258	0.092727
514.901	0.0796164
524.543	0.0732757
534.185	0.0648345
543.828	0.0585656
553.47	0.0539478
563.112	0.0511933
572.755	0.051455
582.397	0.0515079
592.039	0.0541735
601.682	0.063622
611.324	0.0833716
620.966	0.118032
630.609	0.131324
640.251	0.0818994
649.893	0.0512641
659.536	0.0401124
669.178	0.0411994
678.82	0.0559741
688.463	0.0528465
698.105	0.0436921
707.747	0.0425521
717.39	0.0489347
727.032	0.0652984
736.674	0.0896163
746.317	0.0667171
755.959	0.0643419
765.601	0.0715512
775.244	0.0671021
784.886	0.0558451
794.528	0.0596767
804.171	0.0521943
813.813	0.0328607
823.455	0.0261379
833.098	0.0253043
842.74	0.0275768
852.382	0.0305426
862.025	0.0354509
871.667	0.0507135
881.309	0.0443462
890.952	0.0503325
900.594	0.0597864
910.236	0.0734933
919.879	0.0938616
929.521	0.123114
939.163	0.168958
948.806	0.237718
958.448	0.335785
968.09	0.407868
977.733	0.371175
987.375	0.367726
997.017	0.285413
1006.66	0.371536
1016.3	0.427586
1025.94	0.415588
1035.59	0.383705
1045.23	0.378967
1054.87	0.344983
1064.51	0.306831
1074.16	0.256099
1083.8	0.200543
1093.44	0.156304
1103.08	0.124248
1112.72	0.111458
1122.37	0.101213
1132.01	0.0920576
1141.65	0.100601
1151.3	0.12367
1160.94	0.131044
1170.58	0.117308
1180.22	0.0934746
1189.86	0.0644142
1199.51	0.0432273
1209.15	0.029385
1218.79	0.0205731
1228.43	0.0149238
1238.08	0.01172
1247.72	0.00945573
1257.36	0.00806936
1267	0.00706636
1276.64	0.0061573
1286.29	0.0055277
1295.93	0.00535798
1305.57	0.00510156
1315.21	0.00550353
1324.86	0.00514684
1334.5	0.00510583
1344.14	0.00526292
1353.78	0.00556353
1363.43	0.00576147
1373.07	0.00626639
1382.71	0.0069778
1392.35	0.00783421
1401.99	0.00914361
1411.64	0.0109356
1421.28	0.0129901
1430.92	0.0167157
1440.57	0.0226935
1450.21	0.0293516
1459.85	0.0295233
1469.49	0.0273437
1479.13	0.0248306
1488.78	0.0212715
1498.42	0.0173186
1508.06	0.0143283
1517.7	0.0119125
1527.35	0.0113795
1536.99	0.0105019
1546.63	0.0101045
1556.27	0.00994196
1565.91	0.00988362
1575.56	0.0105377
1585.2	0.0118196
1594.84	0.0147139
1604.48	0.0246038
1614.13	0.0396988
1623.77	0.0352842
1633.41	0.043305
1643.05	0.0512609
1652.7	0.0285018
1662.34	0.0135075
1671.98	0.00899491
1681.62	0.00647143
1691.27	0.00438761
1700.91	0.00309919
1710.55	0.000980089
1720.19	0.000895673
1729.84	-1.18071e-05
1739.48	-0.00281775
1749.12	-0.00174489
1758.76	0.00102954
1768.4	0.00296585
1778.05	0.00266106
1787.69	0.00315227
1797.33	0.00250022
1806.97	0.00289796
1816.62	0.00176216
1826.26	0.00263358
1835.9	0.00203062
1845.54	0.00188368
1855.18	0.000789351
1864.83	0.00185778
1874.47	0.000161312
1884.11	-0.000331988
1893.75	0.000836978
1903.4	0.000270792
1913.04	-0.00091689
1922.68	-0.00215723
1932.32	-0.00344142
1941.97	-0.00292783
1951.61	-0.00679725
1961.25	-0.00588002
1970.89	-0.00836986
1980.54	-0.00554548
1990.18	-0.00492819
1999.82	-0.0071304
2009.46	-0.0105192
2019.11	-0.00863224
2028.75	-0.0110149
2038.39	-0.00985309
2048.03	-0.00678828
2057.67	-0.00642306
2067.32	-0.00433861
2076.96	-0.00547298
2086.6	-0.00669276
2096.24	-0.0012106
2105.89	-0.00278396
2115.53	-0.00365293
2125.17	-0.00577421
2134.81	-0.00760302
2144.45	-0.00889237
2154.1	-0.0112306
2163.74	-0.011936
2173.38	-0.00378589
2183.02	-0.00192787
2192.67	-0.00401759
2202.31	-0.00330558
2211.95	-0.00201873
2221.59	-0.00153539
2231.24	0.000336661
2240.88	0.00125919
2250.52	0.000954798
2260.16	0.00252233
2269.8	0.00338036
2279.45	0.00182143
2289.09	0.00357851
2298.73	0.00220241
2308.38	0.00330611
2318.02	0.00401385
2327.66	0.00133004
2337.3	0.00100704
2346.94	0.00113318
2356.59	0.000686269
2366.23	0.00107335
2375.87	0.00235648
2385.51	0.00281676
2395.16	0.00276767
2404.8	0.00312632
2414.44	0.00352159
2424.08	0.0060958
2433.72	0.00259234
2443.37	0.00442982
2453.01	0.00453871
2462.65	0.00430894
2472.29	0.00433174
2481.94	0.00532661
2491.58	0.00454972
2501.22	0.00638073
2510.86	0.00494015
2520.51	0.00609882
2530.15	0.00538905
2539.79	0.00658079
2549.43	0.00605678
2559.07	0.0073295
2568.72	0.00664538
2578.36	0.00761703
2588	0.00680362
2597.64	0.00763414
2607.29	0.00596206
2616.93	0.00742817
2626.57	0.00867566
2636.21	0.00748528
2645.86	0.0073391
2655.5	0.00715768
2665.14	0.00670243
2674.78	0.00642899
2684.43	0.00596303
2694.07	0.00571478
2703.71	0.00662512
2713.35	0.00785455
2722.99	0.00759975
2732.64	0.00731357
2742.28	0.00654063
2751.92	0.00820923
2761.56	0.00721236
2771.21	0.00847447
2780.85	0.00776111
2790.49	0.00731248
2800.13	0.00863797
2809.78	0.00804824
2819.42	0.00771887
2829.06	0.00830198
2838.7	0.00805302
2848.34	0.00902845
2857.99	0.00665302
2867.63	0.00878463
2877.27	0.00781932
2886.91	0.0079982
2896.56	0.00946328
2906.2	0.00820494
2915.84	0.00924205
2925.48	0.00882215
2935.13	0.0110272
2944.77	0.0103999
2954.41	0.0116163
2964.05	0.0129932
2973.7	0.0110017
2983.34	0.0135736
2992.98	0.0129307
3002.62	0.015477
3012.26	0.0141602
3021.91	0.0166159
3031.55	0.0144069
3041.19	0.0170983
3050.83	0.0152372
3060.48	0.0156754
3070.12	0.0132747
3079.76	0.0160371
3089.4	0.0196505
3099.05	0.0161688
3108.69	0.0195283
3118.33	0.0156512
3127.97	0.0191944
3137.61	0.0182804
3147.26	0.0199836
3156.9	0.0185723
3166.54	0.0185036
3176.18	0.0215952
3185.83	0.0222009
3195.47	0.0215596
3205.11	0.0230767
3214.75	0.0231883
3224.4	0.0228224
3234.04	0.0226419
3243.68	0.0272604
3253.32	0.0253237
3262.97	0.0261979
3272.61	0.0253485
3282.25	0.0247886
3291.89	0.0256814
3301.53	0.0279138
3311.18	0.0285108
3320.82	0.0322168
3330.46	0.0305884
3340.1	0.0328999
3349.75	0.0310235
3359.39	0.0338701
3369.03	0.0332104
3378.67	0.0347291
3388.32	0.0356609
3397.96	0.0363782
3407.6	0.0357727
3417.24	0.0373722
3426.89	0.0430115
3436.53	0.0437954
3446.17	0.045989
3455.81	0.0507698
3465.45	0.057878
3475.1	0.0612311
3484.74	0.0642085
3494.38	0.0640791
3504.02	0.0558427
3513.67	0.0506184
3523.31	0.0545571
3532.95	0.0488047
3542.59	0.0467086
3552.24	0.0485057
3561.88	0.0452291
3571.52	0.0487454
3581.16	0.054437
3590.8	0.0603889
3600.45	0.0574783
3610.09	0.0560282
3619.73	0.0499588
3629.37	0.0480263
3639.02	0.0441772
3648.66	0.0301598
3658.3	0.0189166
3667.94	0.0203652
3677.59	0.013161
3687.23	0.0125554
3696.87	0.015349
3706.51	0.0143553
3716.16	0.0131732
3725.8	0.0125392
3735.44	0.0161046
3745.08	0.0175118
3754.72	0.0151317
3764.37	0.0157382
3774.01	0.0123198
3783.65	0.0167919
3793.29	0.0113295
3802.94	0.0145281
3812.58	0.013544
3822.22	0.0160105
3831.86	0.0147356
3841.51	0.0126226
3851.15	0.0127052
3860.79	0.0115246
3870.43	0.016435
3880.07	0.0135503
3889.72	0.0171738
3899.36	0.0154808
3909	0.0175602
3918.64	0.0143357
3928.29	0.0154627
3937.93	0.0169897
3947.57	0.0194448
3957.21	0.0152416
3966.86	0.0154381
3976.5	0.0113934
3986.14	0.0205554
3995.78	0.0133312
