Measurement: Infrared, Infrared Data Processed
Mineral: Zincite
Rruff sample: R050419
Ideal chemistry: Zn^2+^O
Locality: Sterling Hill, Sussex County, New Jersey, USA
Source: Marcus Origlieri
Description: Deep red crystal associated with calcite
Measured chemistry: (Zn_0.99_Mn_0.01_)O
x	intensity
399.193	0.174173
408.835	0.171713
418.477	0.174525
428.12	0.169598
437.762	0.160615
447.404	0.149029
457.047	0.134688
466.689	0.124706
476.331	0.112147
485.974	0.104068
495.616	0.0957849
505.258	0.0889623
514.901	0.0834472
524.543	0.0756679
534.185	0.0681279
543.828	0.061896
553.47	0.0541351
563.112	0.0448602
572.755	0.036426
582.397	0.030469
592.039	0.0268867
601.682	0.024217
611.324	0.0221756
620.966	0.0205795
630.609	0.0201781
640.251	0.0197206
649.893	0.019748
659.536	0.0193701
669.178	0.0184225
678.82	0.0182082
688.463	0.0182882
698.105	0.017576
707.747	0.0173985
717.39	0.0175916
727.032	0.0173814
736.674	0.0164403
746.317	0.0165478
755.959	0.01645
765.601	0.0166033
775.244	0.0166984
784.886	0.0165305
794.528	0.0168302
804.171	0.0167556
813.813	0.0169601
823.455	0.0176685
833.098	0.018002
842.74	0.0186518
852.382	0.0193724
862.025	0.0198386
871.667	0.0208008
881.309	0.0202116
890.952	0.0200302
900.594	0.0200678
910.236	0.0200703
919.879	0.0201366
929.521	0.0197392
939.163	0.0199299
948.806	0.0203408
958.448	0.0206468
968.09	0.0212847
977.733	0.0224242
987.375	0.0229332
997.017	0.0234252
1006.66	0.0239366
1016.3	0.0243893
1025.94	0.0244398
1035.59	0.0242692
1045.23	0.0246948
1054.87	0.024332
1064.51	0.0243978
1074.16	0.024692
1083.8	0.0244486
1093.44	0.0244707
1103.08	0.0247858
1112.72	0.024405
1122.37	0.0249659
1132.01	0.0251104
1141.65	0.025483
1151.3	0.0257165
1160.94	0.0262896
1170.58	0.0261223
1180.22	0.0261053
1189.86	0.025878
1199.51	0.0259273
1209.15	0.0260255
1218.79	0.0262705
1228.43	0.0265432
1238.08	0.0270024
1247.72	0.0272304
1257.36	0.0274071
1267	0.0277542
1276.64	0.0285197
1286.29	0.0289945
1295.93	0.0288164
1305.57	0.0294914
1315.21	0.0300345
1324.86	0.0309576
1334.5	0.0308958
1344.14	0.0315116
1353.78	0.0318862
1363.43	0.0325568
1373.07	0.033141
1382.71	0.0334893
1392.35	0.0347009
1401.99	0.0355576
1411.64	0.0362383
1421.28	0.0363249
1430.92	0.037075
1440.57	0.0378151
1450.21	0.0386213
1459.85	0.038074
1469.49	0.0386672
1479.13	0.0385275
1488.78	0.0380032
1498.42	0.037911
1508.06	0.0379344
1517.7	0.0377819
1527.35	0.038454
1536.99	0.0387348
1546.63	0.0391758
1556.27	0.0387891
1565.91	0.0393851
1575.56	0.0395944
1585.2	0.0399223
1594.84	0.0403577
1604.48	0.0408071
1614.13	0.0416631
1623.77	0.041456
1633.41	0.0415965
1643.05	0.0421899
1652.7	0.0414134
1662.34	0.0428314
1671.98	0.0436633
1681.62	0.043742
1691.27	0.0439756
1700.91	0.0435423
1710.55	0.0449641
1720.19	0.0447303
1729.84	0.0454356
1739.48	0.0451326
1749.12	0.0454856
1758.76	0.0463372
1768.4	0.0464312
1778.05	0.0468674
1787.69	0.0478499
1797.33	0.0478135
1806.97	0.0483738
1816.62	0.0485272
1826.26	0.0483879
1835.9	0.0495652
1845.54	0.0491204
1855.18	0.0500743
1864.83	0.0499455
1874.47	0.0503216
1884.11	0.0497115
1893.75	0.0520478
1903.4	0.0519678
1913.04	0.0510919
1922.68	0.0511907
1932.32	0.0517229
1941.97	0.0509298
1951.61	0.0509567
1961.25	0.0518057
1970.89	0.0485251
1980.54	0.0521957
1990.18	0.055297
1999.82	0.0543911
2009.46	0.0553346
2019.11	0.0560532
2028.75	0.0533982
2038.39	0.0583924
2048.03	0.0576297
2057.67	0.0564718
2067.32	0.0566435
2076.96	0.0584518
2086.6	0.0569439
2096.24	0.0582147
2105.89	0.06056
2115.53	0.0592414
2125.17	0.059781
2134.81	0.0577634
2144.45	0.0564886
2154.1	0.0575221
2163.74	0.06308
2173.38	0.0595452
2183.02	0.0639769
2192.67	0.0628046
2202.31	0.0644063
2211.95	0.063377
2221.59	0.0654145
2231.24	0.0623522
2240.88	0.064109
2250.52	0.064216
2260.16	0.0647003
2269.8	0.0662889
2279.45	0.0667494
2289.09	0.0680651
2298.73	0.0680289
2308.38	0.0681185
2318.02	0.0687997
2327.66	0.0657127
2337.3	0.0662326
2346.94	0.0683759
2356.59	0.0652645
2366.23	0.0650306
2375.87	0.068439
2385.51	0.0699563
2395.16	0.071211
2404.8	0.0686687
2414.44	0.0705324
2424.08	0.0719705
2433.72	0.0709533
2443.37	0.0720904
2453.01	0.0727632
2462.65	0.0743274
2472.29	0.0735116
2481.94	0.0734253
2491.58	0.0730621
2501.22	0.0741205
2510.86	0.0758277
2520.51	0.0737304
2530.15	0.0761783
2539.79	0.0746621
2549.43	0.0746857
2559.07	0.0757051
2568.72	0.0767128
2578.36	0.0776166
2588	0.0782701
2597.64	0.0772557
2607.29	0.0791792
2616.93	0.0795346
2626.57	0.0805632
2636.21	0.0822933
2645.86	0.0817296
2655.5	0.0819259
2665.14	0.0802868
2674.78	0.0805419
2684.43	0.0814805
2694.07	0.0817161
2703.71	0.082773
2713.35	0.0821384
2722.99	0.0837724
2732.64	0.0837025
2742.28	0.0848154
2751.92	0.0827975
2761.56	0.0849782
2771.21	0.0840592
2780.85	0.0850966
2790.49	0.0858521
2800.13	0.0878307
2809.78	0.0870822
2819.42	0.0875709
2829.06	0.0877909
2838.7	0.0876722
2848.34	0.0880458
2857.99	0.0876716
2867.63	0.0892302
2877.27	0.0885796
2886.91	0.0894507
2896.56	0.0897636
2906.2	0.0898608
2915.84	0.0935559
2925.48	0.0915322
2935.13	0.0890616
2944.77	0.0905513
2954.41	0.0923551
2964.05	0.0925101
2973.7	0.0917981
2983.34	0.092476
2992.98	0.0927593
3002.62	0.0929261
3012.26	0.0922071
3021.91	0.0932691
3031.55	0.0953499
3041.19	0.0952365
3050.83	0.0954436
3060.48	0.0940453
3070.12	0.0961374
3079.76	0.0947609
3089.4	0.0934431
3099.05	0.0961179
3108.69	0.0956771
3118.33	0.0969415
3127.97	0.0980773
3137.61	0.0975413
3147.26	0.0972442
3156.9	0.0991718
3166.54	0.0969382
3176.18	0.100716
3185.83	0.0995113
3195.47	0.100408
3205.11	0.100253
3214.75	0.100203
3224.4	0.101759
3234.04	0.102568
3243.68	0.102823
3253.32	0.100635
3262.97	0.103892
3272.61	0.108363
3282.25	0.104395
3291.89	0.104633
3301.53	0.10411
3311.18	0.104812
3320.82	0.103745
3330.46	0.10762
3340.1	0.105335
3349.75	0.105233
3359.39	0.108821
3369.03	0.106984
3378.67	0.107571
3388.32	0.107847
3397.96	0.110965
3407.6	0.11105
3417.24	0.112672
3426.89	0.107825
3436.53	0.109493
3446.17	0.11112
3455.81	0.110838
3465.45	0.109295
3475.1	0.108951
3484.74	0.113746
3494.38	0.111369
3504.02	0.114029
3513.67	0.109557
3523.31	0.112656
3532.95	0.114176
3542.59	0.116454
3552.24	0.115953
3561.88	0.113402
3571.52	0.109919
3581.16	0.116126
3590.8	0.115095
3600.45	0.115109
3610.09	0.114508
3619.73	0.111176
3629.37	0.117321
3639.02	0.115137
3648.66	0.114854
3658.3	0.114016
3667.94	0.118081
3677.59	0.11736
3687.23	0.118168
3696.87	0.120748
3706.51	0.122055
3716.16	0.118044
3725.8	0.118063
3735.44	0.121649
3745.08	0.120726
3754.72	0.122584
3764.37	0.121578
3774.01	0.121339
3783.65	0.129357
3793.29	0.122689
3802.94	0.125805
3812.58	0.125462
3822.22	0.128569
3831.86	0.124884
3841.51	0.126491
3851.15	0.129042
3860.79	0.127319
3870.43	0.12698
3880.07	0.128826
3889.72	0.132319
3899.36	0.130152
3909	0.128949
3918.64	0.128285
3928.29	0.132939
3937.93	0.128636
3947.57	0.135312
3957.21	0.134847
3966.86	0.134461
3976.5	0.136103
3986.14	0.133759
3995.78	0.133581
