Measurement: Infrared, Infrared Data Processed
Mineral: Zincite
Rruff sample: R060027
Ideal chemistry: Zn^2+^O
Locality: synthetic
Source: Jacque Reynard, Greg Schmidt
Description: Colorless prismatic crystal
Measured chemistry: Zn_1.00_O
x	intensity
399.193	0.330308
408.835	0.310261
418.477	0.275856
428.12	0.252574
437.762	0.227132
447.404	0.203441
457.047	0.181447
466.689	0.160622
476.331	0.145218
485.974	0.130908
495.616	0.118396
505.258	0.105246
514.901	0.0937293
524.543	0.0813095
534.185	0.0696063
543.828	0.0594284
553.47	0.0481612
563.112	0.0364761
572.755	0.0258362
582.397	0.016533
592.039	0.010836
601.682	0.0072174
611.324	0.00501078
620.966	0.00354956
630.609	0.00244786
640.251	0.00270289
649.893	0.00301488
659.536	0.00311738
669.178	0.00331443
678.82	0.00359846
688.463	0.00347495
698.105	0.00340619
707.747	0.00283165
717.39	0.00261477
727.032	0.002854
736.674	0.00224062
746.317	0.00130105
755.959	0.000246567
765.601	0.000698568
775.244	0.000686692
784.886	0.000799063
794.528	0.000756822
804.171	0.000582017
813.813	0.000989726
823.455	0.00139958
833.098	0.00251386
842.74	0.00379149
852.382	0.00504318
862.025	0.00589552
871.667	0.00609892
881.309	0.00625768
890.952	0.00578107
900.594	0.00546234
910.236	0.00544157
919.879	0.00518331
929.521	0.00455317
939.163	0.00383963
948.806	0.00397386
958.448	0.00473379
968.09	0.00596295
977.733	0.00751945
987.375	0.00862109
997.017	0.00842136
1006.66	0.00878271
1016.3	0.00952763
1025.94	0.00937735
1035.59	0.00923844
1045.23	0.00867218
1054.87	0.00775385
1064.51	0.00671697
1074.16	0.00598649
1083.8	0.00535723
1093.44	0.00515957
1103.08	0.00471612
1112.72	0.00443844
1122.37	0.00383314
1132.01	0.0043304
1141.65	0.00422352
1151.3	0.00340314
1160.94	0.00194455
1170.58	0.00121605
1180.22	0.000592323
1189.86	6.66119e-05
1199.51	-0.000152713
1209.15	-0.000291528
1218.79	-0.000353012
1228.43	-0.000253936
1238.08	-3.54573e-05
1247.72	-8.27815e-05
1257.36	-0.000201032
1267	0.000154927
1276.64	0.00114798
1286.29	0.000674864
1295.93	0.000181893
1305.57	0.000475494
1315.21	0.000514112
1324.86	0.000537407
1334.5	0.000777409
1344.14	0.000804387
1353.78	0.00148606
1363.43	0.00204358
1373.07	0.00248198
1382.71	0.00303061
1392.35	0.00332124
1401.99	0.0037837
1411.64	0.0040398
1421.28	0.0038388
1430.92	0.00386994
1440.57	0.00340583
1450.21	0.00279769
1459.85	0.00290306
1469.49	0.00260528
1479.13	0.00237885
1488.78	0.00244852
1498.42	0.00238971
1508.06	0.00219235
1517.7	0.00178126
1527.35	0.00188553
1536.99	0.00150786
1546.63	0.00165695
1556.27	0.00189948
1565.91	0.00167505
1575.56	0.00155708
1585.2	0.00171369
1594.84	0.00182638
1604.48	0.00164247
1614.13	0.00109606
1623.77	0.000550315
1633.41	6.50994e-05
1643.05	3.0756e-05
1652.7	-9.41753e-06
1662.34	-0.000136238
1671.98	2.2579e-05
1681.62	2.93665e-05
1691.27	0.000142343
1700.91	-0.000146311
1710.55	6.89998e-05
1720.19	-4.83543e-06
1729.84	0.000340264
1739.48	-0.000811707
1749.12	-0.000220791
1758.76	-0.000214905
1768.4	0.000223793
1778.05	0.000251252
1787.69	5.78649e-05
1797.33	0.0001559
1806.97	0.00016541
1816.62	-0.000397298
1826.26	0.00048048
1835.9	0.000196267
1845.54	0.000261109
1855.18	0.000256646
1864.83	7.73407e-05
1874.47	0.00019889
1884.11	0.00010566
1893.75	2.62857e-05
1903.4	-0.000299484
1913.04	1.1228e-05
1922.68	-0.000582732
1932.32	-0.000320107
1941.97	-0.000115342
1951.61	-0.000994485
1961.25	0.000749305
1970.89	-0.00173162
1980.54	0.00275664
1990.18	-0.00011177
1999.82	-0.00100877
2009.46	-0.000103638
2019.11	-0.00248254
2028.75	-0.00281302
2038.39	0.000775792
2048.03	0.00209655
2057.67	-0.00192988
2067.32	-6.21304e-05
2076.96	0.000223648
2086.6	0.00026026
2096.24	-2.6051e-05
2105.89	0.000581276
2115.53	0.00031817
2125.17	-0.00104153
2134.81	-0.00303825
2144.45	-0.00191995
2154.1	-0.0063596
2163.74	0.00178966
2173.38	0.000963554
2183.02	-0.00068935
2192.67	-0.000723451
2202.31	-0.000981227
2211.95	-0.00123799
2221.59	0.000396274
2231.24	0.000157885
2240.88	0.000401542
2250.52	-0.00123803
2260.16	-0.00104549
2269.8	-0.000558376
2279.45	-0.000281557
2289.09	0.00149199
2298.73	-0.000958934
2308.38	-0.000839286
2318.02	0.00110192
2327.66	-0.0026899
2337.3	-0.000395179
2346.94	-0.000422634
2356.59	-0.000257045
2366.23	-0.000671603
2375.87	-0.000154778
2385.51	-0.000676498
2395.16	-0.000403687
2404.8	-0.000506721
2414.44	-0.00039199
2424.08	1.82986e-05
2433.72	-0.000311896
2443.37	-0.000710987
2453.01	0.000214271
2462.65	0.000372946
2472.29	-0.000819273
2481.94	-0.000458151
2491.58	1.09896e-05
2501.22	0.000725225
2510.86	-0.000598744
2520.51	0.000623099
2530.15	-0.000145078
2539.79	4.66406e-05
2549.43	4.8615e-05
2559.07	-0.000945106
2568.72	0.000277668
2578.36	0.000150546
2588	2.40952e-05
2597.64	-2.88934e-05
2607.29	0.00031133
2616.93	0.00027892
2626.57	-8.73432e-05
2636.21	-1.57207e-06
2645.86	-0.00019452
2655.5	-0.000539035
2665.14	-0.000715159
2674.78	-0.000422664
2684.43	-2.25156e-05
2694.07	0.000256203
2703.71	0.00041049
2713.35	-0.00013271
2722.99	-0.000569403
2732.64	-0.000168785
2742.28	-0.000177011
2751.92	-0.000167273
2761.56	-0.000333518
2771.21	-0.000491083
2780.85	-0.00038182
2790.49	0.000230894
2800.13	0.000169359
2809.78	-0.000410907
2819.42	-0.000182629
2829.06	0.000795156
2838.7	0.0017595
2848.34	0.00280983
2857.99	0.0022407
2867.63	0.00207251
2877.27	0.00116443
2886.91	0.00173388
2896.56	0.00266133
2906.2	0.00243206
2915.84	0.004295
2925.48	0.00497276
2935.13	0.00239823
2944.77	0.00141655
2954.41	0.00173492
2964.05	0.000417963
2973.7	0.000126101
2983.34	0.00074435
2992.98	-0.000687324
3002.62	0.000484437
3012.26	-0.000528522
3021.91	7.10636e-05
3031.55	-0.00105327
3041.19	-0.000797615
3050.83	0.000793777
3060.48	-0.000320874
3070.12	-0.000730947
3079.76	0.00130356
3089.4	0.000312708
3099.05	-0.000563987
3108.69	-6.8523e-05
3118.33	0.00133923
3127.97	-1.47522e-05
3137.61	-8.56817e-05
3147.26	-0.000101559
3156.9	0.000380464
3166.54	-1.06767e-05
3176.18	-0.000386424
3185.83	-0.000508897
3195.47	-1.8999e-05
3205.11	-0.000160523
3214.75	0.000760861
3224.4	-5.24893e-05
3234.04	-0.00038369
3243.68	0.000274569
3253.32	0.000203244
3262.97	0.000510707
3272.61	-0.000810288
3282.25	0.000745952
3291.89	0.000357904
3301.53	0.000530921
3311.18	-0.00012482
3320.82	0.0016024
3330.46	-0.00074926
3340.1	-8.65683e-05
3349.75	-0.000420876
3359.39	0.0014774
3369.03	6.86049e-05
3378.67	-0.000302769
3388.32	0.000299714
3397.96	0.00010743
3407.6	0.000677079
3417.24	-0.00201366
3426.89	-0.000406936
3436.53	-0.000182174
3446.17	-0.000359744
3455.81	-0.00210759
3465.45	-0.00193892
3475.1	-0.000116304
3484.74	-0.000643946
3494.38	0.00114123
3504.02	-0.000160709
3513.67	-0.00224934
3523.31	-0.000625148
3532.95	-0.00110072
3542.59	0.00141756
3552.24	-0.00148974
3561.88	-0.00168685
3571.52	-0.00176206
3581.16	-0.000581354
3590.8	-0.000771619
3600.45	-0.000733048
3610.09	0.000162363
3619.73	-0.00175803
3629.38	-0.00506867
3639.02	-0.00166583
3648.66	-0.00162569
3658.3	-0.00217165
3667.94	-0.00167794
3677.59	-0.000229895
3687.23	-0.00382733
3696.87	-0.00104779
3706.51	-0.00119842
3716.16	-0.00151079
3725.8	-0.00101005
3735.44	-0.00178985
3745.08	-0.000162333
3754.72	0.0012062
3764.37	-0.00147367
3774.01	-5.86957e-05
3783.65	-0.00211593
3793.29	-0.00100733
3802.94	0.000653788
3812.58	-0.000566639
3822.22	-0.000128128
3831.86	0.00083629
3841.51	-0.00124652
3851.15	-2.30521e-05
3860.79	-0.00108688
3870.43	-0.000535369
3880.07	-0.000752114
3889.72	-0.00163316
3899.36	-0.000849724
3909	-0.00110151
3918.64	-0.00259487
3928.29	-0.00225289
3937.93	-0.00236325
3947.57	0.000371009
3957.21	-0.00340352
3966.86	-0.00257729
3976.5	-0.000809982
3986.14	-0.000864908
3995.78	0.000291556
