Measurement: Infrared, Infrared Data Processed
Mineral: Zircon
Rruff sample: R050203
Ideal chemistry: Zr^4+^SiO_4_
Locality: Eastern Thailand
Source: Eric Van Valkenburg
Description: Dark red water-worn single crystal
Measured chemistry: (Zr_0.99_Hf_0.01_)_Î£=1_Si_1.00_O_4_
x	intensity
374.123	0.519868
383.765	0.321602
393.407	0.220573
403.05	0.158782
412.692	0.123633
422.334	0.16625
431.976	0.216816
441.619	0.118239
451.261	0.0778593
460.904	0.051399
470.546	0.030407
480.188	0.0214784
489.83	0.0219812
499.473	0.0229
509.115	0.0250241
518.758	0.0283671
528.4	0.0309358
538.042	0.0342309
547.684	0.0406134
557.327	0.047975
566.969	0.0606807
576.611	0.0829791
586.254	0.123521
595.896	0.197068
605.538	0.278058
615.181	0.248321
624.823	0.168894
634.466	0.109197
644.108	0.0847287
653.75	0.0798963
663.393	0.0765871
673.035	0.0817173
682.677	0.0889988
692.319	0.0972374
701.962	0.10727
711.604	0.118656
721.246	0.131279
730.889	0.145443
740.531	0.163963
750.173	0.183208
759.816	0.206685
769.458	0.232156
779.101	0.25867
788.743	0.287272
798.385	0.318005
808.028	0.349702
817.67	0.37991
827.312	0.411347
836.955	0.44285
846.597	0.472267
856.239	0.49319
865.881	0.499475
875.524	0.494724
885.166	0.473331
894.808	0.44191
904.451	0.407985
914.093	0.374807
923.736	0.344157
933.378	0.314772
943.02	0.290541
952.663	0.273507
962.305	0.256924
971.947	0.245523
981.59	0.228616
991.232	0.204036
1000.87	0.177061
1010.52	0.151246
1020.16	0.128974
1029.8	0.111774
1039.44	0.100655
1049.09	0.0880384
1058.73	0.0727741
1068.37	0.0553532
1078.01	0.0400571
1087.65	0.0273313
1097.3	0.0198001
1106.94	0.0167218
1116.58	0.0153891
1126.22	0.0140938
1135.87	0.0132634
1145.51	0.0128894
1155.15	0.0142219
1164.79	0.0142353
1174.44	0.012633
1184.08	0.0113916
1193.72	0.0105318
1203.36	0.010608
1213.01	0.010843
1222.65	0.0109705
1232.29	0.010559
1241.93	0.0107604
1251.58	0.0109287
1261.22	0.0114951
1270.86	0.0118775
1280.5	0.0124259
1290.14	0.011957
1299.79	0.0120324
1309.43	0.0127519
1319.07	0.0128309
1328.71	0.0127964
1338.36	0.0125455
1348	0.0122734
1357.64	0.0124176
1367.28	0.0134129
1376.92	0.0138592
1386.57	0.0142972
1396.21	0.0146242
1405.85	0.0149246
1415.49	0.0152175
1425.14	0.0155539
1434.78	0.0156903
1444.42	0.0163425
1454.06	0.0169769
1463.71	0.0171339
1473.35	0.0159795
1482.99	0.0146133
1492.63	0.0145967
1502.28	0.0150825
1511.92	0.0158292
1521.56	0.0165562
1531.2	0.0168225
1540.85	0.0175498
1550.49	0.0176679
1560.13	0.0184188
1569.77	0.0182371
1579.41	0.0187534
1589.06	0.0190807
1598.7	0.0199962
1608.34	0.0196317
1617.98	0.0201984
1627.63	0.0201177
1637.27	0.0202192
1646.91	0.0203983
1656.55	0.0204436
1666.19	0.0204508
1675.84	0.0206294
1685.48	0.0211004
1695.12	0.021883
1704.77	0.0222564
1714.41	0.0235488
1724.05	0.0269677
1733.69	0.0330378
1743.33	0.0272178
1752.98	0.0223867
1762.62	0.0220245
1772.26	0.02283
1781.9	0.0237641
1791.55	0.0250133
1801.19	0.0246914
1810.83	0.0246212
1820.47	0.0250184
1830.12	0.0250814
1839.76	0.0247205
1849.4	0.0246526
1859.04	0.0257713
1868.68	0.0260842
1878.33	0.0262384
1887.97	0.0257281
1897.61	0.0254286
1907.25	0.0261949
1916.9	0.0262173
1926.54	0.025465
1936.18	0.0257103
1945.82	0.0255736
1955.46	0.0238471
1965.11	0.0233577
1974.75	0.0238205
1984.39	0.0260264
1994.04	0.0270018
2003.68	0.0239817
2013.32	0.0260511
2022.96	0.0273171
2032.6	0.026946
2042.25	0.0282259
2051.89	0.0301999
2061.53	0.0310494
2071.17	0.0318203
2080.82	0.032041
2090.46	0.0320732
2100.1	0.0332801
2109.74	0.0340751
2119.39	0.0325191
2129.03	0.030649
2138.67	0.0320248
2148.31	0.0310017
2157.95	0.0301691
2167.6	0.0351957
2177.24	0.033898
2186.88	0.0369663
2196.52	0.0372564
2206.17	0.0365938
2215.81	0.0369069
2225.45	0.0378926
2235.09	0.0384231
2244.74	0.0388341
2254.38	0.0391315
2264.02	0.0392419
2273.66	0.039359
2283.3	0.0411812
2292.95	0.0411516
2302.59	0.0414404
2312.23	0.0421682
2321.87	0.0430821
2331.52	0.0419941
2341.16	0.0422156
2350.8	0.0418218
2360.44	0.0414963
2370.09	0.0422723
2379.73	0.0420843
2389.37	0.0424233
2399.01	0.0421696
2408.66	0.0435572
2418.3	0.0429208
2427.94	0.0436278
2437.58	0.0437101
2447.22	0.0441484
2456.87	0.0447104
2466.51	0.0445217
2476.15	0.0447549
2485.79	0.0450837
2495.44	0.0455657
2505.08	0.0449737
2514.72	0.0456532
2524.36	0.0457967
2534.01	0.046102
2543.65	0.0471438
2553.29	0.0471927
2562.93	0.0479026
2572.57	0.0481029
2582.22	0.047969
2591.86	0.0477946
2601.5	0.048529
2611.14	0.0491344
2620.79	0.0500062
2630.43	0.0502085
2640.07	0.0504501
2649.71	0.0505839
2659.36	0.0504609
2669	0.0500273
2678.64	0.0505273
2688.28	0.0504651
2697.93	0.0510378
2707.57	0.0517655
2717.21	0.0519082
2726.85	0.0518414
2736.49	0.052483
2746.14	0.0525399
2755.78	0.0534581
2765.42	0.0537063
2775.06	0.0538371
2784.71	0.05458
2794.35	0.0543472
2803.99	0.0548732
2813.63	0.0555695
2823.28	0.0562334
2832.92	0.0567408
2842.56	0.0583865
2852.2	0.0596935
2861.84	0.0608602
2871.49	0.0611023
2881.13	0.0608337
2890.77	0.0612728
2900.41	0.0630309
2910.06	0.0630802
2919.7	0.0654602
2929.34	0.0658955
2938.98	0.0648772
2948.62	0.0661605
2958.27	0.0678426
2967.91	0.0644516
2977.55	0.0605198
2987.2	0.0601963
2996.84	0.059363
3006.48	0.0595036
3016.12	0.060308
3025.76	0.0600597
3035.41	0.0603642
3045.05	0.060497
3054.69	0.061175
3064.33	0.0621349
3073.98	0.0616695
3083.62	0.0620714
3093.26	0.0615408
3102.9	0.0626566
3112.55	0.0633049
3122.19	0.0626586
3131.83	0.0634579
3141.47	0.0642602
3151.11	0.0645813
3160.76	0.0651417
3170.4	0.0648283
3180.04	0.0658892
3189.68	0.0652775
3199.33	0.0663806
3208.97	0.0655802
3218.61	0.0668946
3228.25	0.0662884
3237.9	0.0661098
3247.54	0.0670626
3257.18	0.067313
3266.82	0.0681171
3276.47	0.0677772
3286.11	0.0675465
3295.75	0.0677144
3305.39	0.0672067
3315.03	0.0687139
3324.68	0.0688998
3334.32	0.0683956
3343.96	0.0699328
3353.6	0.0696971
3363.25	0.0695303
3372.89	0.0701385
3382.53	0.0693662
3392.17	0.0695264
3401.82	0.0686513
3411.46	0.0696211
3421.1	0.0695592
3430.74	0.0696153
3440.39	0.0709559
3450.03	0.0703782
3459.67	0.0694628
3469.31	0.0696051
3478.95	0.0703637
3488.6	0.0704628
3498.24	0.068573
3507.88	0.0695395
3517.52	0.0694271
3527.17	0.0699379
3536.81	0.0684963
3546.45	0.0687456
3556.09	0.0695515
3565.74	0.0691682
3575.38	0.0684112
3585.02	0.0684187
3594.66	0.0673475
3604.3	0.0679788
3613.95	0.067231
3623.59	0.0665352
3633.23	0.0659565
3642.87	0.0652746
3652.52	0.0659769
3662.16	0.0674581
3671.8	0.0669821
3681.44	0.0661199
3691.09	0.0653009
3700.73	0.0659908
3710.37	0.0682245
3720.01	0.068557
3729.66	0.0654639
3739.3	0.0675787
3748.94	0.0699894
3758.58	0.0686447
3768.22	0.0690978
3777.87	0.0700674
3787.51	0.0682352
3797.15	0.0676503
3806.79	0.0696299
3816.44	0.0700036
3826.08	0.0693978
3835.72	0.0700747
3845.36	0.0697025
3855.01	0.0706001
3864.65	0.0697803
3874.29	0.0695119
3883.93	0.069558
3893.57	0.0700807
3903.22	0.0678049
3912.86	0.0694574
3922.5	0.0705824
3932.14	0.0708351
3941.79	0.0708778
3951.43	0.0713933
3961.07	0.0711481
3970.71	0.0713328
3980.36	0.0718519
3990	0.0711469
3999.64	0.0721647
