Measurement: Infrared, Infrared Data Processed
Mineral: Zoisite
Rruff sample: R050038
Ideal chemistry: Ca_2_Al_3_(Si_2_O_7_)(SiO_4_)O(OH)
Locality: Elf Shooting Creek, Clay County, North Carolina, USA
Source: University of Arizona Mineral Museum
Description: Tan colored fragments of single crystals
Measured chemistry: (Ca_.998_Na_.002_)_2_(Al_.982_Fe^3+^_.018_)_3_(Si_.982_Fe^3+^_.018_)_3_O_12_(OH)
x	intensity
399.193	0.239561
408.835	0.212875
418.477	0.166456
428.12	0.187018
437.762	0.228281
447.404	0.209219
457.047	0.208288
466.689	0.210974
476.331	0.178673
485.974	0.138927
495.616	0.150538
505.258	0.202772
514.901	0.184327
524.543	0.163091
534.185	0.174155
543.828	0.226251
553.47	0.24567
563.112	0.243064
572.755	0.220323
582.397	0.162174
592.039	0.148767
601.682	0.125138
611.324	0.122382
620.966	0.134407
630.609	0.098931
640.251	0.117024
649.893	0.145001
659.536	0.125794
669.178	0.103706
678.82	0.0947028
688.463	0.0983891
698.105	0.0990438
707.747	0.0813462
717.39	0.0832253
727.032	0.062592
736.674	0.059239
746.317	0.0740423
755.959	0.0765393
765.601	0.0615552
775.244	0.0648858
784.886	0.0594626
794.528	0.053633
804.171	0.0568469
813.813	0.0672025
823.455	0.0909386
833.098	0.119918
842.74	0.151969
852.382	0.198988
862.025	0.23202
871.667	0.242257
881.309	0.258608
890.952	0.266546
900.594	0.255557
910.236	0.228634
919.879	0.208902
929.521	0.21897
939.163	0.229909
948.806	0.226437
958.448	0.192034
968.09	0.161295
977.733	0.13951
987.375	0.109563
997.017	0.087631
1006.66	0.073556
1016.3	0.0629172
1025.94	0.0599469
1035.59	0.0674475
1045.23	0.0799833
1054.87	0.0674355
1064.51	0.0646413
1074.16	0.0785308
1083.8	0.111307
1093.44	0.160549
1103.08	0.191926
1112.72	0.183665
1122.37	0.167245
1132.01	0.115421
1141.65	0.072496
1151.3	0.048135
1160.94	0.0351782
1170.58	0.0226952
1180.22	0.0186179
1189.86	0.0144807
1199.51	0.0121232
1209.15	0.0105557
1218.79	0.0100097
1228.43	0.0087921
1238.08	0.00878396
1247.72	0.00856333
1257.36	0.00854519
1267	0.00836258
1276.64	0.00933701
1286.29	0.00815501
1295.93	0.00860599
1305.57	0.00922634
1315.21	0.0103183
1324.86	0.0103527
1334.5	0.0101937
1344.14	0.00961287
1353.78	0.00977663
1363.43	0.01024
1373.07	0.0125578
1382.71	0.013614
1392.35	0.0128284
1401.99	0.0130999
1411.64	0.0138419
1421.28	0.0142548
1430.92	0.0142094
1440.57	0.014234
1450.21	0.0153928
1459.85	0.0146081
1469.49	0.0134085
1479.13	0.0122759
1488.78	0.0114475
1498.42	0.0106865
1508.06	0.00993497
1517.7	0.0095377
1527.35	0.01011
1536.99	0.0100113
1546.63	0.0103281
1556.27	0.010548
1565.91	0.0113656
1575.56	0.0108879
1585.2	0.0120352
1594.84	0.0122645
1604.48	0.0127524
1614.13	0.0131538
1623.77	0.0136919
1633.41	0.0144721
1643.05	0.0150831
1652.7	0.0144704
1662.34	0.0151067
1671.98	0.0144691
1681.62	0.0132302
1691.27	0.0123339
1700.91	0.0110616
1710.55	0.0106257
1720.19	0.0101775
1729.84	0.00939507
1739.48	0.00860424
1749.12	0.00888515
1758.76	0.00903866
1768.4	0.00895011
1778.05	0.00896783
1787.69	0.00894121
1797.33	0.00857769
1806.97	0.00841154
1816.62	0.00780317
1826.26	0.00796059
1835.9	0.00781822
1845.54	0.00752776
1855.18	0.00874749
1864.83	0.00848307
1874.47	0.00751587
1884.11	0.00663849
1893.75	0.00733885
1903.4	0.0069656
1913.04	0.00859622
1922.68	0.00625937
1932.32	0.00499304
1941.97	0.00558512
1951.61	0.00427817
1961.25	0.00670243
1970.89	0.00423594
1980.54	0.00899701
1990.18	0.00682623
1999.82	0.00735504
2009.46	0.00694265
2019.11	0.00859323
2028.75	0.00821682
2038.39	0.014222
2048.03	0.0145495
2057.67	0.0105311
2067.32	0.0083553
2076.96	0.0124596
2086.6	0.010839
2096.24	0.0119241
2105.89	0.0114936
2115.53	0.0103615
2125.17	0.0103868
2134.81	0.0109
2144.45	0.0109755
2154.1	0.00715157
2163.74	0.0155059
2173.38	0.00815055
2183.02	0.00610766
2192.67	0.0112999
2202.31	0.00595634
2211.95	0.00800595
2221.59	0.0123242
2231.24	0.00955179
2240.88	0.0101169
2250.52	0.00901528
2260.16	0.0115769
2269.8	0.0132601
2279.45	0.0137926
2289.09	0.0138282
2298.73	0.0141979
2308.38	0.0156063
2318.02	0.0153525
2327.66	0.0138953
2337.3	0.0133927
2346.94	0.0142336
2356.59	0.0144081
2366.23	0.0129446
2375.87	0.0139746
2385.51	0.0138467
2395.16	0.0130339
2404.8	0.0155245
2414.44	0.015056
2424.08	0.0146945
2433.72	0.0147558
2443.37	0.0151564
2453.01	0.0162468
2462.65	0.0164984
2472.29	0.0148882
2481.94	0.0159582
2491.58	0.0143216
2501.22	0.0166343
2510.86	0.0167991
2520.51	0.0158249
2530.15	0.0171574
2539.79	0.0163339
2549.43	0.0180031
2559.07	0.0162215
2568.72	0.017879
2578.36	0.0163867
2588	0.017809
2597.64	0.017559
2607.29	0.0189326
2616.93	0.0192419
2626.57	0.017707
2636.21	0.0192474
2645.86	0.0197613
2655.5	0.0187286
2665.14	0.0192187
2674.78	0.0183968
2684.43	0.0183135
2694.07	0.0188879
2703.71	0.0194985
2713.35	0.0178114
2722.99	0.0198319
2732.64	0.0203778
2742.28	0.0196784
2751.92	0.021693
2761.56	0.021886
2771.21	0.0211664
2780.85	0.0219542
2790.49	0.0218382
2800.13	0.0234131
2809.78	0.0246122
2819.42	0.025225
2829.06	0.026248
2838.7	0.0282649
2848.34	0.0284965
2857.99	0.0301179
2867.63	0.0352111
2877.27	0.0385088
2886.91	0.0385587
2896.56	0.0406168
2906.2	0.0378448
2915.84	0.0368774
2925.48	0.0401777
2935.13	0.0387784
2944.77	0.0381865
2954.41	0.0370625
2964.05	0.044459
2973.7	0.0585618
2983.34	0.0485608
2992.98	0.0362572
3002.62	0.0352343
3012.26	0.0336073
3021.91	0.0338301
3031.55	0.0372016
3041.19	0.0363049
3050.83	0.0376466
3060.48	0.0414467
3070.12	0.0429013
3079.76	0.0433657
3089.4	0.0450363
3099.05	0.0468062
3108.69	0.0512661
3118.33	0.0550287
3127.97	0.0603123
3137.61	0.0684055
3147.26	0.0747427
3156.9	0.0791974
3166.54	0.0768038
3176.18	0.0742107
3185.83	0.0704859
3195.47	0.0684337
3205.11	0.0626975
3214.75	0.0637959
3224.4	0.0620701
3234.04	0.0651628
3243.68	0.0622498
3253.32	0.0643046
3262.97	0.0659979
3272.61	0.0665074
3282.25	0.0656172
3291.89	0.0636498
3301.53	0.0675098
3311.18	0.0646061
3320.82	0.0653273
3330.46	0.0641431
3340.1	0.0662078
3349.75	0.0653454
3359.39	0.0646096
3369.03	0.0642184
3378.67	0.0645506
3388.32	0.064421
3397.96	0.0612219
3407.6	0.0604395
3417.24	0.059559
3426.89	0.0580207
3436.53	0.0570078
3446.17	0.0537955
3455.81	0.0518931
3465.45	0.0499584
3475.1	0.049771
3484.74	0.0479317
3494.38	0.0448841
3504.02	0.0419341
3513.67	0.0386444
3523.31	0.0387175
3532.95	0.0350872
3542.59	0.033823
3552.24	0.0346353
3561.88	0.0316184
3571.52	0.02945
3581.16	0.0264917
3590.8	0.0273643
3600.45	0.0284664
3610.09	0.026023
3619.73	0.0212232
3629.37	0.02571
3639.02	0.0188034
3648.66	0.0242929
3658.3	0.0220273
3667.94	0.0191647
3677.59	0.0184028
3687.23	0.0175581
3696.87	0.0153645
3706.51	0.0146692
3716.16	0.0198907
3725.8	0.017192
3735.44	0.0120321
3745.08	0.0173169
3754.72	0.0177945
3764.37	0.0155514
3774.01	0.0140432
3783.65	0.0201601
3793.29	0.0172809
3802.94	0.0204399
3812.58	0.0201197
3822.22	0.0196434
3831.86	0.0159348
3841.51	0.0186009
3851.15	0.0149487
3860.79	0.0150771
3870.43	0.0148971
3880.07	0.0147943
3889.72	0.0199259
3899.36	0.0139122
3909	0.0145631
3918.64	0.0177753
3928.29	0.0149072
3937.93	0.0151221
3947.57	0.016829
3957.21	0.0189356
3966.86	0.0191583
3976.5	0.0166201
3986.14	0.0166771
3995.78	0.0167747
