Measurement: Infrared, Infrared Data Processed
Mineral: Zoisite
Rruff sample: R050041
Ideal chemistry: Ca_2_Al_3_(Si_2_O_7_)(SiO_4_)O(OH)
Locality: Franklin County, Conway, Massachussetts, USA
Source: University of Arizona Mineral Museum
Description: Tan colored fragment
Measured chemistry: (Ca_.993_Mg_.004_Na_.002_Mn_.001_)_2_(Al_.980_Fe^3+^_.020_)_3_(Si_.986_Fe^3+^_.014_)_3_O_12_(OH)
x	intensity
399.193	0
408.835	0.162243
418.477	0.136768
428.12	0.127338
437.762	0.14863
447.404	0.13943
457.047	0.147543
466.689	0.163471
476.331	0.146911
485.974	0.123762
495.616	0.115151
505.258	0.153963
514.901	0.155286
524.543	0.153336
534.185	0.172553
543.828	0.188764
553.47	0.193342
563.112	0.20191
572.755	0.187854
582.397	0.150217
592.039	0.12963
601.682	0.119439
611.324	0.108454
620.966	0.126689
630.609	0.0947992
640.251	0.0873394
649.893	0.0973849
659.536	0.0961896
669.178	0.0842792
678.82	0.0792367
688.463	0.0777605
698.105	0.0742612
707.747	0.0599519
717.39	0.0652023
727.032	0.0604822
736.674	0.0518685
746.317	0.0593483
755.959	0.0691804
765.601	0.0530207
775.244	0.0512233
784.886	0.043556
794.528	0.0396947
804.171	0.0430372
813.813	0.051641
823.455	0.0692853
833.098	0.0902104
842.74	0.112325
852.382	0.143932
862.025	0.173003
871.667	0.192634
881.309	0.219894
890.952	0.245296
900.594	0.246681
910.236	0.232359
919.879	0.219646
929.521	0.224744
939.163	0.215559
948.806	0.20061
958.448	0.171037
968.09	0.154035
977.733	0.13838
987.375	0.126629
997.017	0.113706
1006.66	0.105893
1016.3	0.101534
1025.94	0.0930057
1035.59	0.0824419
1045.23	0.0723259
1054.87	0.066227
1064.51	0.0706926
1074.16	0.0821984
1083.8	0.0954237
1093.44	0.117289
1103.08	0.127123
1112.72	0.119938
1122.37	0.119708
1132.01	0.100744
1141.65	0.0762726
1151.3	0.0548472
1160.94	0.0408556
1170.58	0.0251911
1180.22	0.016244
1189.86	0.0103791
1199.51	0.00677613
1209.15	0.0047951
1218.79	0.00327691
1228.43	0.0028483
1238.08	0.00209073
1247.72	0.00164773
1257.36	0.00142903
1267	0.00138942
1276.64	0.00100033
1286.29	0.00129611
1295.93	0.00107556
1305.57	0.00118289
1315.21	0.00123962
1324.86	0.00130467
1334.5	0.0014974
1344.14	0.00137953
1353.78	0.00160511
1363.43	0.00170482
1373.07	0.00185392
1382.71	0.00186176
1392.35	0.00223719
1401.99	0.00240584
1411.64	0.00281674
1421.28	0.00331177
1430.92	0.00294361
1440.57	0.00324581
1450.21	0.00328748
1459.85	0.00307397
1469.49	0.00330863
1479.13	0.00302467
1488.78	0.00289629
1498.42	0.0027262
1508.06	0.00318359
1517.7	0.0031479
1527.35	0.00340548
1536.99	0.00381824
1546.63	0.00393038
1556.27	0.00436358
1565.91	0.00485912
1575.56	0.00505172
1585.2	0.0051048
1594.84	0.00561274
1604.48	0.00561636
1614.13	0.00551885
1623.77	0.00561719
1633.41	0.0055951
1643.05	0.00551064
1652.7	0.0057516
1662.34	0.00501623
1671.98	0.00495856
1681.62	0.00463904
1691.27	0.00409594
1700.91	0.00323527
1710.55	0.00301482
1720.19	0.00301451
1729.84	0.0028452
1739.48	0.00239468
1749.12	0.00235434
1758.76	0.00258441
1768.4	0.0025133
1778.05	0.00291447
1787.69	0.00323845
1797.33	0.00227457
1806.97	0.00245959
1816.62	0.00206665
1826.26	0.00253548
1835.9	0.00261742
1845.54	0.00225319
1855.18	0.00238355
1864.83	0.00207532
1874.47	0.00222779
1884.11	0.00173149
1893.75	0.00166713
1903.4	0.000863179
1913.04	0.00149382
1922.68	0.00172953
1932.32	0.000937425
1941.97	-0.000794635
1951.61	0.000201396
1961.25	0.00133348
1970.89	-0.000944363
1980.54	0.00501953
1990.18	0.0013661
1999.82	0.0010777
2009.46	-0.000264028
2019.11	-0.000322182
2028.75	-0.000982836
2038.39	0.00249765
2048.03	0.00103846
2057.67	0.00149029
2067.32	0.00208829
2076.96	0.00241552
2086.6	0.00422626
2096.24	0.00543294
2105.89	0.0044135
2115.53	0.00428135
2125.17	0.00489687
2134.81	0.00339162
2144.45	0.0017097
2154.1	-0.000891542
2163.74	0.00156694
2173.38	0.00107467
2183.02	0.00215645
2192.67	0.00229103
2202.31	-0.000604304
2211.95	0.000494706
2221.59	0.0019287
2231.24	0.000816673
2240.88	0.00102836
2250.52	0.000310911
2260.16	0.00396328
2269.8	0.00417234
2279.45	0.00436081
2289.09	0.00515658
2298.73	0.00567076
2308.38	0.00530174
2318.02	0.00638129
2327.66	0.00644733
2337.3	0.00592641
2346.94	0.00539226
2356.59	0.00626069
2366.23	0.0057229
2375.87	0.0058506
2385.51	0.00626351
2395.16	0.00587914
2404.8	0.00674735
2414.44	0.00663926
2424.08	0.00642198
2433.72	0.00719527
2443.37	0.00658487
2453.01	0.00685951
2462.65	0.00752222
2472.29	0.00682093
2481.94	0.00670076
2491.58	0.00649724
2501.22	0.00673184
2510.86	0.00671365
2520.51	0.00736186
2530.15	0.00754715
2539.79	0.00724257
2549.43	0.00751557
2559.07	0.00745502
2568.72	0.00730934
2578.36	0.0085333
2588	0.00843173
2597.64	0.00817967
2607.29	0.00748586
2616.93	0.00734342
2626.57	0.00848952
2636.21	0.00760235
2645.86	0.00829122
2655.5	0.00826419
2665.14	0.00754579
2674.78	0.00832504
2684.43	0.00768777
2694.07	0.00799329
2703.71	0.0087973
2713.35	0.00896197
2722.99	0.00822174
2732.64	0.00916859
2742.28	0.00945975
2751.92	0.00937171
2761.56	0.00933201
2771.21	0.00929761
2780.85	0.00974591
2790.49	0.0101946
2800.13	0.00947581
2809.78	0.0102937
2819.42	0.0106946
2829.06	0.0110135
2838.7	0.0109886
2848.34	0.0106098
2857.99	0.0106288
2867.63	0.0104938
2877.27	0.0100829
2886.91	0.0117868
2896.56	0.0114287
2906.2	0.0124659
2915.84	0.0124958
2925.48	0.0116345
2935.13	0.0117181
2944.77	0.0121918
2954.41	0.0125678
2964.05	0.0134209
2973.7	0.0133658
2983.34	0.0138236
2992.98	0.0142146
3002.62	0.0144725
3012.26	0.0145708
3021.91	0.0162224
3031.55	0.0162567
3041.19	0.0176391
3050.83	0.0175504
3060.48	0.0184706
3070.12	0.0191564
3079.76	0.0203171
3089.4	0.0207955
3099.05	0.0218574
3108.69	0.02396
3118.33	0.0254936
3127.97	0.0276204
3137.61	0.0298794
3147.26	0.0309652
3156.9	0.0316931
3166.54	0.0297527
3176.18	0.0276047
3185.83	0.0244339
3195.47	0.0215559
3205.11	0.0220054
3214.75	0.0217345
3224.4	0.020764
3234.04	0.0206786
3243.68	0.0198204
3253.32	0.0193608
3262.97	0.0194945
3272.61	0.0184045
3282.25	0.0188649
3291.89	0.0173611
3301.53	0.017492
3311.18	0.0179263
3320.82	0.018414
3330.46	0.0182919
3340.1	0.0164991
3349.75	0.0166394
3359.39	0.0162023
3369.03	0.0177106
3378.67	0.0165091
3388.32	0.0167961
3397.96	0.016421
3407.6	0.0164331
3417.24	0.0173309
3426.89	0.0149124
3436.53	0.0163672
3446.17	0.014984
3455.81	0.0156536
3465.45	0.0149078
3475.1	0.0148906
3484.74	0.0135795
3494.38	0.0138722
3504.02	0.0133847
3513.67	0.0129507
3523.31	0.0142613
3532.95	0.014628
3542.59	0.0136545
3552.24	0.0138411
3561.88	0.0108269
3571.52	0.0134567
3581.16	0.0112315
3590.8	0.0116403
3600.45	0.0126959
3610.09	0.0124513
3619.73	0.0108536
3629.37	0.011482
3639.02	0.0105092
3648.66	0.00847895
3658.3	0.00925693
3667.94	0.00840662
3677.59	0.00678999
3687.23	0.00766543
3696.87	0.0056162
3706.51	0.0045304
3716.16	0.00627068
3725.8	0.00462896
3735.44	0.00342836
3745.08	0.00347675
3754.72	0.00215855
3764.37	0.00250699
3774.01	0.00550601
3783.65	0.0034543
3793.29	0.00546143
3802.94	0.00421763
3812.58	0.00361872
3822.22	0.00273443
3831.86	0.00553038
3841.51	0.00406619
3851.15	0.00500831
3860.79	0.00611117
3870.43	0.00564267
3880.07	0.00362126
3889.72	0.00454218
3899.36	0.00498915
3909	0.00527928
3918.64	0.00512192
3928.29	0.00234672
3937.93	0.00477346
3947.57	0.00357421
3957.21	0.00416973
3966.86	0.00337484
3976.5	0.00455933
3986.14	0.00356179
3995.78	0.00560584
