Measurement: Infrared, Infrared Data RAW
Mineral: Adamite
Rruff sample: R040130
Ideal chemistry: Zn^2+^_2_As^5+^O_4_(OH)
Locality: Mina Ojuela, Mapimi, Durango, Mexico
Source: Bob Downs
Description: Pale yellow spherical aggregate of bladed crystals
Measured chemistry: Zn_1.97_(As_1.01_O_4_)(OH)
x	intensity
399.193	0.096419
408.835	0.064765
418.477	0.043231
428.12	0.032753
437.762	0.036202
447.404	0.048828
457.047	0.077264
466.689	0.109887
476.331	0.103994
485.974	0.097586
495.616	0.119117
505.258	0.134247
514.901	0.131103
524.543	0.136305
534.185	0.124577
543.828	0.092179
553.47	0.057852
563.112	0.033304
572.755	0.023668
582.397	0.019086
592.039	0.01796
601.682	0.016445
611.324	0.016008
620.966	0.0172
630.609	0.01833
640.251	0.019705
649.893	0.022323
659.536	0.024686
669.178	0.029523
678.82	0.034467
688.463	0.040233
698.105	0.049417
707.747	0.060705
717.39	0.078836
727.032	0.103417
736.674	0.111772
746.317	0.12628
755.959	0.161738
765.601	0.200678
775.244	0.240699
784.886	0.275451
794.528	0.287298
804.171	0.270766
813.813	0.270911
823.455	0.242032
833.098	0.19439
842.74	0.157566
852.382	0.117487
862.025	0.083485
871.667	0.07286
881.309	0.078528
890.952	0.076608
900.594	0.060704
910.236	0.041681
919.879	0.026707
929.521	0.019115
939.163	0.01574
948.806	0.013106
958.448	0.011006
968.09	0.009797
977.733	0.008709
987.375	0.008028
997.017	0.008028
1006.66	0.008326
1016.3	0.008879
1025.94	0.008963
1035.59	0.008606
1045.23	0.008961
1054.87	0.008327
1064.51	0.008085
1074.16	0.007687
1083.8	0.007494
1093.44	0.00756
1103.08	0.007364
1112.72	0.006713
1122.37	0.006095
1132.01	0.005768
1141.65	0.005853
1151.3	0.005559
1160.94	0.005885
1170.58	0.005672
1180.22	0.005716
1189.86	0.005687
1199.51	0.005533
1209.15	0.005482
1218.79	0.005698
1228.43	0.00567
1238.08	0.005527
1247.72	0.005771
1257.36	0.005632
1267	0.006107
1276.64	0.005877
1286.29	0.006087
1295.93	0.006256
1305.57	0.006438
1315.21	0.00671
1324.86	0.006868
1334.5	0.007197
1344.14	0.007281
1353.78	0.007851
1363.43	0.007952
1373.07	0.007859
1382.71	0.008251
1392.35	0.008362
1401.99	0.008444
1411.64	0.008505
1421.28	0.008669
1430.92	0.008796
1440.57	0.00897
1450.21	0.009367
1459.85	0.009404
1469.49	0.009427
1479.13	0.009085
1488.78	0.008937
1498.42	0.008888
1508.06	0.009086
1517.7	0.009411
1527.35	0.009412
1536.99	0.009727
1546.63	0.010047
1556.27	0.010587
1565.91	0.010886
1575.56	0.011451
1585.2	0.012132
1594.84	0.01246
1604.48	0.012555
1614.13	0.01248
1623.77	0.011708
1633.41	0.011888
1643.05	0.01165
1652.7	0.011257
1662.34	0.011141
1671.98	0.010872
1681.62	0.010495
1691.27	0.010718
1700.91	0.011206
1710.55	0.01094
1720.19	0.011389
1729.84	0.011334
1739.48	0.011483
1749.12	0.011255
1758.76	0.010796
1768.4	0.010782
1778.05	0.010819
1787.69	0.011067
1797.33	0.010614
1806.97	0.010969
1816.62	0.010971
1826.26	0.011134
1835.9	0.011625
1845.54	0.012282
1855.18	0.012172
1864.83	0.012006
1874.47	0.012485
1884.11	0.012825
1893.75	0.012469
1903.4	0.013335
1913.04	0.012928
1922.68	0.01214
1932.32	0.012048
1941.97	0.011824
1951.61	0.012566
1961.25	0.013449
1970.89	0.012555
1980.54	0.015303
1990.18	0.015257
1999.82	0.01473
2009.46	0.015193
2019.11	0.011276
2028.75	0.01359
2038.39	0.013912
2048.03	0.015271
2057.67	0.014446
2067.32	0.014544
2076.96	0.013834
2086.6	0.014148
2096.24	0.013752
2105.89	0.014408
2115.53	0.013976
2125.17	0.01369
2134.81	0.013318
2144.45	0.014422
2154.1	0.015089
2163.74	0.018368
2173.38	0.014764
2183.02	0.014955
2192.67	0.0153
2202.31	0.016318
2211.95	0.01663
2221.59	0.013733
2231.24	0.015455
2240.88	0.016691
2250.52	0.016155
2260.16	0.016642
2269.8	0.017172
2279.45	0.017956
2289.09	0.017099
2298.73	0.017361
2308.38	0.01681
2318.02	0.018849
2327.66	0.017801
2337.3	0.018118
2346.94	0.017149
2356.59	0.018261
2366.23	0.017768
2375.87	0.017917
2385.51	0.017138
2395.16	0.017412
2404.8	0.01792
2414.44	0.017264
2424.08	0.017997
2433.72	0.018722
2443.37	0.018207
2453.01	0.018341
2462.65	0.017853
2472.29	0.018703
2481.94	0.018555
2491.58	0.018663
2501.22	0.018259
2510.86	0.018776
2520.51	0.018394
2530.15	0.019106
2539.79	0.018152
2549.43	0.019867
2559.07	0.01857
2568.72	0.019543
2578.36	0.018997
2588	0.019675
2597.64	0.019988
2607.29	0.020065
2616.93	0.020376
2626.57	0.019796
2636.21	0.02062
2645.86	0.020448
2655.5	0.020467
2665.14	0.019639
2674.78	0.020296
2684.43	0.020129
2694.07	0.019511
2703.71	0.02065
2713.35	0.020765
2722.99	0.020857
2732.64	0.020871
2742.28	0.020489
2751.92	0.020779
2761.56	0.021035
2771.21	0.020822
2780.85	0.021589
2790.49	0.022083
2800.13	0.021937
2809.78	0.022375
2819.42	0.022264
2829.06	0.022661
2838.7	0.022238
2848.34	0.022121
2857.99	0.022757
2867.63	0.022628
2877.27	0.023641
2886.91	0.023909
2896.56	0.023709
2906.2	0.021843
2915.84	0.023269
2925.48	0.022952
2935.13	0.024522
2944.77	0.02347
2954.41	0.024294
2964.05	0.025004
2973.7	0.024477
2983.34	0.024795
2992.98	0.024438
3002.62	0.024671
3012.26	0.024862
3021.91	0.024075
3031.55	0.025054
3041.19	0.024804
3050.83	0.025816
3060.48	0.026391
3070.12	0.025205
3079.76	0.025783
3089.4	0.027484
3099.05	0.025961
3108.69	0.026215
3118.33	0.027257
3127.97	0.026147
3137.61	0.025677
3147.26	0.02729
3156.9	0.026985
3166.54	0.027872
3176.18	0.028413
3185.83	0.027662
3195.47	0.027748
3205.11	0.027877
3214.75	0.027402
3224.4	0.027908
3234.04	0.028921
3243.68	0.029522
3253.32	0.027977
3262.97	0.028867
3272.61	0.028962
3282.25	0.028727
3291.89	0.028665
3301.53	0.028191
3311.18	0.02857
3320.82	0.028357
3330.46	0.028714
3340.1	0.02963
3349.75	0.028489
3359.39	0.029101
3369.03	0.029412
3378.67	0.02903
3388.32	0.029205
3397.96	0.030342
3407.6	0.029778
3417.24	0.030327
3426.89	0.030435
3436.53	0.029328
3446.17	0.029945
3455.81	0.029995
3465.45	0.031522
3475.1	0.029455
3484.74	0.027558
3494.38	0.028734
3504.02	0.031563
3513.67	0.032334
3523.31	0.036519
3532.95	0.044006
3542.59	0.06346
3552.24	0.053081
3561.88	0.027861
3571.52	0.025275
3581.16	0.024053
3590.8	0.024027
3600.45	0.024521
3610.09	0.023904
3619.73	0.024221
3629.37	0.024728
3639.02	0.024727
3648.66	0.023101
3658.3	0.02325
3667.94	0.023159
3677.59	0.022612
3687.23	0.025083
3696.87	0.024142
3706.51	0.025475
3716.16	0.025666
3725.8	0.024501
3735.44	0.026551
3745.08	0.025074
3754.72	0.024813
3764.37	0.024809
3774.01	0.026835
3783.65	0.025491
3793.29	0.025362
3802.94	0.026175
3812.58	0.023726
3822.22	0.0257
3831.86	0.026011
3841.51	0.025588
3851.15	0.026164
3860.79	0.026532
3870.43	0.02458
3880.07	0.026977
3889.72	0.0256
3899.36	0.025688
3909	0.025786
3918.64	0.027378
3928.29	0.027002
3937.93	0.026461
3947.57	0.02696
3957.21	0.0265
3966.86	0.027047
3976.5	0.026987
3986.14	0.025535
3995.78	0.026599
