Measurement: Infrared, Infrared Data RAW
Mineral: Analcime
Rruff sample: R040128
Ideal chemistry: NaAlSi_2_O_6_H_2_O
Locality: Mont Saint-Hilaire, Rouville County, Quebec, Canada
Source: Bob Downs
Description: White trapezohedra associated with black arfvedsonite, R040127
Measured chemistry: Na_0.93_(Si_2.04_Al_0.99_)O_6_Â·H_2_O
x	intensity
399.193	0.169908
408.835	0.171591
418.477	0.175258
428.12	0.187672
437.762	0.197466
447.404	0.176768
457.047	0.132163
466.689	0.094821
476.331	0.073569
485.974	0.062382
495.616	0.054729
505.258	0.04902
514.901	0.045542
524.543	0.042662
534.185	0.039974
543.828	0.03853
553.47	0.036971
563.112	0.03543
572.755	0.034292
582.397	0.035313
592.039	0.03686
601.682	0.040138
611.324	0.043803
620.966	0.042737
630.609	0.038732
640.251	0.035792
649.893	0.032879
659.536	0.035035
669.178	0.038428
678.82	0.040089
688.463	0.04804
698.105	0.054838
707.747	0.060738
717.39	0.071728
727.032	0.086772
736.674	0.091197
746.317	0.081338
755.959	0.070436
765.601	0.074072
775.244	0.053098
784.886	0.032167
794.528	0.022738
804.171	0.017952
813.813	0.017143
823.455	0.017993
833.098	0.020107
842.74	0.023749
852.382	0.024376
862.025	0.026763
871.667	0.031575
881.309	0.037458
890.952	0.046439
900.594	0.058499
910.236	0.075762
919.879	0.095107
929.521	0.11412
939.163	0.139823
948.806	0.178918
958.448	0.227867
968.09	0.276719
977.733	0.306595
987.375	0.309876
997.017	0.308974
1006.66	0.302169
1016.3	0.286843
1025.94	0.263351
1035.59	0.240789
1045.23	0.210289
1054.87	0.17426
1064.51	0.14143
1074.16	0.116601
1083.8	0.101653
1093.44	0.096128
1103.08	0.091027
1112.72	0.084046
1122.37	0.074816
1132.01	0.063076
1141.65	0.052616
1151.3	0.042624
1160.94	0.034389
1170.58	0.026238
1180.22	0.019469
1189.86	0.014596
1199.51	0.011181
1209.15	0.008579
1218.79	0.006726
1228.43	0.005054
1238.08	0.004455
1247.72	0.003402
1257.36	0.002839
1267	0.002263
1276.64	0.002281
1286.29	0.002098
1295.93	0.001983
1305.57	0.001844
1315.21	0.001678
1324.86	0.001691
1334.5	0.001839
1344.14	0.00182
1353.78	0.001795
1363.43	0.001978
1373.07	0.002233
1382.71	0.001993
1392.35	0.00252
1401.99	0.002651
1411.64	0.002688
1421.28	0.003132
1430.92	0.003444
1440.57	0.004213
1450.21	0.004306
1459.85	0.00394
1469.49	0.004062
1479.13	0.003838
1488.78	0.003826
1498.42	0.003983
1508.06	0.00417
1517.7	0.003766
1527.35	0.003568
1536.99	0.004079
1546.63	0.004369
1556.27	0.004523
1565.91	0.004567
1575.56	0.004789
1585.2	0.004718
1594.84	0.005288
1604.48	0.006734
1614.13	0.009948
1623.77	0.020776
1633.41	0.0264
1643.05	0.015141
1652.7	0.009687
1662.34	0.006091
1671.98	0.004899
1681.62	0.003734
1691.27	0.003187
1700.91	0.003065
1710.55	0.003115
1720.19	0.003006
1729.84	0.00223
1739.48	0.002468
1749.12	0.002861
1758.76	0.002999
1768.4	0.002694
1778.05	0.003011
1787.69	0.002763
1797.33	0.002934
1806.97	0.002768
1816.62	0.002216
1826.26	0.002723
1835.9	0.002015
1845.54	0.002082
1855.18	0.001221
1864.83	0.001194
1874.47	0.001994
1884.11	0.00075
1893.75	0.001989
1903.4	0.000837
1913.04	0.000462
1922.68	-0.000466
1932.32	0.000912
1941.97	-0.000351
1951.61	-0.002038
1961.25	-0.001273
1970.89	-0.004124
1980.54	0.000995
1990.18	-0.003152
1999.82	-0.003139
2009.46	-0.001691
2019.11	-0.005249
2028.75	-0.004294
2038.39	-0.003885
2048.03	-0.001283
2057.67	-0.001537
2067.32	-0.00209
2076.96	-0.001014
2086.6	-0.000576
2096.24	-0.000663
2105.89	0.000698
2115.53	0.001041
2125.17	-0.000681
2134.81	-0.002366
2144.45	0.000283
2154.1	-0.004239
2163.74	0.001291
2173.38	0.001039
2183.02	0.002144
2192.67	0.001748
2202.31	0.001401
2211.95	0.004105
2221.59	0.003899
2231.24	0.002819
2240.88	0.003175
2250.52	0.002897
2260.16	0.003594
2269.8	0.002776
2279.45	0.00414
2289.09	0.004797
2298.73	0.004084
2308.38	0.003678
2318.02	0.004305
2327.66	0.003843
2337.3	0.00292
2346.94	0.003287
2356.59	0.003812
2366.23	0.003031
2375.87	0.002741
2385.51	0.002857
2395.16	0.003564
2404.8	0.003527
2414.44	0.003674
2424.08	0.003099
2433.72	0.003007
2443.37	0.003253
2453.01	0.004343
2462.65	0.004174
2472.29	0.003179
2481.94	0.00465
2491.58	0.003435
2501.22	0.003281
2510.86	0.003682
2520.51	0.003859
2530.15	0.004673
2539.79	0.005221
2549.43	0.004806
2559.07	0.004809
2568.72	0.005425
2578.36	0.005335
2588	0.004398
2597.64	0.004156
2607.29	0.003938
2616.93	0.004098
2626.57	0.004337
2636.21	0.004581
2645.86	0.004343
2655.5	0.004587
2665.14	0.004292
2674.78	0.004055
2684.43	0.00456
2694.07	0.00383
2703.71	0.004399
2713.35	0.003858
2722.99	0.003664
2732.64	0.004162
2742.28	0.004275
2751.92	0.00432
2761.56	0.00363
2771.21	0.00464
2780.85	0.004459
2790.49	0.003793
2800.13	0.004642
2809.78	0.005111
2819.42	0.004811
2829.06	0.004439
2838.7	0.00414
2848.34	0.004853
2857.99	0.003751
2867.63	0.004382
2877.27	0.005441
2886.91	0.004742
2896.56	0.003977
2906.2	0.004373
2915.84	0.004535
2925.48	0.004264
2935.13	0.003974
2944.77	0.00419
2954.41	0.003273
2964.05	0.004415
2973.7	0.004983
2983.34	0.005062
2992.98	0.004998
3002.62	0.005202
3012.26	0.005279
3021.91	0.004417
3031.55	0.005566
3041.19	0.006509
3050.83	0.007206
3060.48	0.006377
3070.12	0.006308
3079.76	0.005816
3089.4	0.00743
3099.05	0.00661
3108.69	0.005978
3118.33	0.007656
3127.97	0.00689
3137.61	0.006893
3147.26	0.006095
3156.9	0.007134
3166.54	0.007137
3176.18	0.006921
3185.83	0.007878
3195.47	0.008034
3205.11	0.007445
3214.75	0.007927
3224.4	0.009035
3234.04	0.009616
3243.68	0.007355
3253.32	0.008552
3262.97	0.008081
3272.61	0.008757
3282.25	0.008338
3291.89	0.008278
3301.53	0.010123
3311.18	0.010297
3320.82	0.008976
3330.46	0.010106
3340.1	0.010066
3349.75	0.010784
3359.39	0.009847
3369.03	0.009952
3378.67	0.011227
3388.32	0.011588
3397.96	0.009074
3407.6	0.011417
3417.24	0.013479
3426.89	0.012609
3436.53	0.013861
3446.17	0.013634
3455.81	0.014218
3465.45	0.014892
3475.1	0.01395
3484.74	0.01431
3494.38	0.015258
3504.02	0.015265
3513.67	0.01717
3523.31	0.016442
3532.95	0.015852
3542.59	0.019219
3552.24	0.018902
3561.88	0.017635
3571.52	0.014887
3581.16	0.016843
3590.8	0.016977
3600.45	0.018982
3610.09	0.019801
3619.73	0.018855
3629.37	0.015149
3639.02	0.010755
3648.66	0.006685
3658.3	0.007477
3667.94	0.007457
3677.59	0.004784
3687.23	0.004557
3696.87	0.005745
3706.51	0.003701
3716.16	0.003416
3725.8	0.005932
3735.44	0.005307
3745.08	0.005684
3754.72	0.004729
3764.37	0.003434
3774.01	0.004814
3783.65	0.005761
3793.29	0.00573
3802.94	0.004642
3812.58	0.005132
3822.22	0.007505
3831.86	0.004049
3841.51	0.007506
3851.15	0.004572
3860.79	0.005001
3870.43	0.005392
3880.07	0.006754
3889.72	0.003688
3899.36	0.005618
3909	0.005207
3918.64	0.00558
3928.29	0.006701
3937.93	0.003956
3947.57	0.005069
3957.21	0.005267
3966.86	0.0041
3976.5	0.005037
3986.14	0.004195
3995.78	0.004983
