Measurement: Infrared, Infrared Data RAW
Mineral: Arfvedsonite
Rruff sample: R040127
Ideal chemistry: NaNa_2_(Fe^2+^_4_Fe^3+^)Si_8_O_22_(OH)_2_
Locality: Mont Saint-Hilaire, Rouville County, Quebec, Canada
Source: Bob Downs
Description: Black prismatic crystal associated with white analcime, R040128
Measured chemistry: (Na_0.61_K_0.39_)Na_2.00_(Fe^2+^_2.40_Mg_0.80_Mn_0.75_Ca_0.05_)_=4_(Fe^3+^_0.60_Al_0.25_Mn_0.15_)(Si_0.99_Ti_0.01_)_8_O_22_((OH)_0.67_F_0.33_)_2_
x	intensity
399.193	0.156927
408.835	0.155052
418.477	0.161167
428.12	0.170613
437.762	0.185728
447.404	0.195095
457.047	0.183127
466.689	0.169744
476.331	0.168455
485.974	0.160729
495.616	0.143004
505.258	0.125058
514.901	0.105451
524.543	0.093025
534.185	0.0863
543.828	0.074886
553.47	0.054722
563.112	0.038074
572.755	0.029628
582.397	0.025858
592.039	0.024947
601.682	0.028579
611.324	0.033116
620.966	0.037027
630.609	0.042385
640.251	0.050224
649.893	0.050739
659.536	0.043194
669.178	0.038719
678.82	0.029256
688.463	0.027887
698.105	0.030575
707.747	0.029311
717.39	0.029251
727.032	0.035712
736.674	0.048034
746.317	0.063629
755.959	0.054371
765.601	0.036296
775.244	0.03241
784.886	0.033451
794.528	0.035733
804.171	0.039423
813.813	0.045621
823.455	0.054858
833.098	0.067014
842.74	0.082755
852.382	0.099059
862.025	0.121928
871.667	0.142454
881.309	0.157596
890.952	0.171278
900.594	0.182577
910.236	0.195016
919.879	0.211706
929.521	0.231038
939.163	0.259665
948.806	0.28529
958.448	0.287047
968.09	0.270725
977.733	0.24334
987.375	0.212818
997.017	0.182093
1006.66	0.156103
1016.3	0.136855
1025.94	0.1198
1035.59	0.106333
1045.23	0.101429
1054.87	0.101075
1064.51	0.10456
1074.16	0.10089
1083.8	0.081257
1093.44	0.060853
1103.08	0.044288
1112.72	0.034122
1122.37	0.0374
1132.01	0.057223
1141.65	0.04561
1151.3	0.021338
1160.94	0.010104
1170.58	0.006537
1180.22	0.005251
1189.86	0.004603
1199.51	0.003983
1209.15	0.00346
1218.79	0.002994
1228.43	0.002812
1238.08	0.002781
1247.72	0.002551
1257.36	0.002464
1267	0.002454
1276.64	0.002732
1286.29	0.002814
1295.93	0.002963
1305.57	0.002835
1315.21	0.003179
1324.86	0.00343
1334.5	0.003675
1344.14	0.003748
1353.78	0.004096
1363.43	0.004441
1373.07	0.004469
1382.71	0.004309
1392.35	0.004255
1401.99	0.004127
1411.64	0.004098
1421.28	0.004354
1430.92	0.004538
1440.57	0.005381
1450.21	0.005526
1459.85	0.005231
1469.49	0.005026
1479.13	0.004574
1488.78	0.004379
1498.42	0.004272
1508.06	0.004983
1517.7	0.004869
1527.35	0.00497
1536.99	0.005882
1546.63	0.006553
1556.27	0.006418
1565.91	0.006228
1575.56	0.006335
1585.2	0.006429
1594.84	0.006354
1604.48	0.006748
1614.13	0.006633
1623.77	0.006384
1633.41	0.005601
1643.05	0.005849
1652.7	0.005951
1662.34	0.005475
1671.98	0.005496
1681.62	0.005176
1691.27	0.005093
1700.91	0.005022
1710.55	0.005107
1720.19	0.004927
1729.84	0.004559
1739.48	0.004688
1749.12	0.004768
1758.76	0.005131
1768.4	0.005039
1778.05	0.005095
1787.69	0.004821
1797.33	0.005341
1806.97	0.004937
1816.62	0.004457
1826.26	0.004886
1835.9	0.004506
1845.54	0.004537
1855.18	0.003857
1864.83	0.003926
1874.47	0.004419
1884.11	0.003683
1893.75	0.004267
1903.4	0.003286
1913.04	0.003171
1922.68	0.002656
1932.32	0.003315
1941.97	0.003061
1951.61	0.002436
1961.25	0.002082
1970.89	0.000684
1980.54	0.004409
1990.18	0.001785
1999.82	0.003132
2009.46	0.004685
2019.11	0.002405
2028.75	0.004876
2038.39	0.004749
2048.03	0.00471
2057.67	0.005153
2067.32	0.00597
2076.96	0.006731
2086.6	0.006209
2096.24	0.006347
2105.89	0.00695
2115.53	0.006132
2125.17	0.005213
2134.81	0.005253
2144.45	0.006271
2154.1	0.003212
2163.74	0.008432
2173.38	0.008065
2183.02	0.007664
2192.67	0.009387
2202.31	0.010479
2211.95	0.010653
2221.59	0.011098
2231.24	0.009962
2240.88	0.010399
2250.52	0.009053
2260.16	0.009401
2269.8	0.008867
2279.45	0.009679
2289.09	0.009267
2298.73	0.010055
2308.38	0.008892
2318.02	0.009228
2327.66	0.008979
2337.3	0.008609
2346.94	0.008771
2356.59	0.009017
2366.23	0.009352
2375.87	0.008388
2385.51	0.008599
2395.16	0.008761
2404.8	0.00886
2414.44	0.00856
2424.08	0.008863
2433.72	0.00974
2443.37	0.009265
2453.01	0.00917
2462.65	0.00985
2472.29	0.008509
2481.94	0.009915
2491.58	0.009276
2501.22	0.009353
2510.86	0.009161
2520.51	0.009114
2530.15	0.009524
2539.79	0.010466
2549.43	0.010433
2559.07	0.010463
2568.72	0.010925
2578.36	0.011289
2588	0.010226
2597.64	0.010043
2607.29	0.01023
2616.93	0.010392
2626.57	0.009967
2636.21	0.009992
2645.86	0.010103
2655.5	0.010587
2665.14	0.010171
2674.78	0.009778
2684.43	0.010659
2694.07	0.009779
2703.71	0.010011
2713.35	0.010096
2722.99	0.010004
2732.64	0.009782
2742.28	0.009842
2751.92	0.010003
2761.56	0.009858
2771.21	0.010086
2780.85	0.010437
2790.49	0.010059
2800.13	0.010994
2809.78	0.010808
2819.42	0.011041
2829.06	0.009863
2838.7	0.010995
2848.34	0.011266
2857.99	0.010728
2867.63	0.010998
2877.27	0.011653
2886.91	0.011623
2896.56	0.010847
2906.2	0.011096
2915.84	0.010549
2925.48	0.010819
2935.13	0.010515
2944.77	0.010231
2954.41	0.010339
2964.05	0.010597
2973.7	0.012149
2983.34	0.011439
2992.98	0.011131
3002.62	0.011758
3012.26	0.011442
3021.91	0.011414
3031.55	0.012426
3041.19	0.012465
3050.83	0.0132
3060.48	0.012613
3070.12	0.01216
3079.76	0.011861
3089.4	0.012727
3099.05	0.013243
3108.69	0.013284
3118.33	0.013969
3127.97	0.013861
3137.61	0.012474
3147.26	0.012981
3156.9	0.013495
3166.54	0.013626
3176.18	0.013599
3185.83	0.014266
3195.47	0.01501
3205.11	0.013999
3214.75	0.01382
3224.4	0.014686
3234.04	0.01434
3243.68	0.013674
3253.32	0.013872
3262.97	0.014377
3272.61	0.013611
3282.25	0.012829
3291.89	0.01376
3301.53	0.01455
3311.18	0.014649
3320.82	0.014643
3330.46	0.014285
3340.1	0.014254
3349.75	0.015145
3359.39	0.014166
3369.03	0.013598
3378.67	0.015244
3388.32	0.014142
3397.96	0.012727
3407.6	0.014103
3417.24	0.014984
3426.89	0.014663
3436.53	0.014194
3446.17	0.014662
3455.81	0.014411
3465.45	0.016025
3475.1	0.013035
3484.74	0.01441
3494.38	0.013786
3504.02	0.013915
3513.67	0.015472
3523.31	0.014558
3532.95	0.013263
3542.59	0.013954
3552.24	0.015347
3561.88	0.014575
3571.52	0.013193
3581.16	0.0132
3590.8	0.012479
3600.45	0.013095
3610.09	0.014257
3619.73	0.014286
3629.37	0.014726
3639.02	0.014683
3648.66	0.013727
3658.3	0.017167
3667.94	0.016145
3677.59	0.014407
3687.23	0.013617
3696.87	0.014516
3706.51	0.012098
3716.16	0.012738
3725.8	0.01345
3735.44	0.014397
3745.08	0.01297
3754.72	0.013403
3764.37	0.01407
3774.01	0.013527
3783.65	0.013382
3793.29	0.013818
3802.94	0.014671
3812.58	0.013169
3822.22	0.014868
3831.86	0.012681
3841.51	0.014791
3851.15	0.013225
3860.79	0.013566
3870.43	0.01255
3880.07	0.013894
3889.72	0.013314
3899.36	0.014232
3909	0.013282
3918.64	0.013156
3928.29	0.014064
3937.93	0.013008
3947.57	0.014641
3957.21	0.015219
3966.86	0.013571
3976.5	0.014808
3986.14	0.011833
3995.78	0.012891
