Measurement: Infrared, Infrared Data RAW
Mineral: Chenevixite
Rruff sample: R040166
Ideal chemistry: Cu^2+^Fe^3+^(As^5+^O_4_)(OH)_2_
Locality: Volcanic Sunnyside mine, Santa Cruz County, Arizona, USA
Source: Andy Anderson
Description: Green earthy massive
Measured chemistry: Cu_2.00_(Fe^3+^_1.98_[box]_0.02_)_Σ=2_((As_0.94_S_0.06_)O_4_)_2_(OH)_4_·1.49H_2_O
x	intensity
399.193	0.219212
408.835	0.184428
418.477	0.15366
428.12	0.169111
437.762	0.19245
447.404	0.195812
457.047	0.201485
466.689	0.197784
476.331	0.176884
485.974	0.15136
495.616	0.172299
505.258	0.205972
514.901	0.197714
524.543	0.171834
534.185	0.151126
543.828	0.123552
553.47	0.103415
563.112	0.094926
572.755	0.088275
582.397	0.085535
592.039	0.078459
601.682	0.070584
611.324	0.065648
620.966	0.06133
630.609	0.054475
640.251	0.05364
649.893	0.052599
659.536	0.053113
669.178	0.057662
678.82	0.062401
688.463	0.068628
698.105	0.073431
707.747	0.075228
717.39	0.084519
727.032	0.098402
736.674	0.117916
746.317	0.143666
755.959	0.176274
765.601	0.218634
775.244	0.270691
784.886	0.319976
794.528	0.375249
804.171	0.391385
813.813	0.358687
823.455	0.297824
833.098	0.250963
842.74	0.210353
852.382	0.185154
862.025	0.17556
871.667	0.160613
881.309	0.146834
890.952	0.127346
900.594	0.103278
910.236	0.079423
919.879	0.062717
929.521	0.053544
939.163	0.051907
948.806	0.056372
958.448	0.051995
968.09	0.052309
977.733	0.076577
987.375	0.109805
997.017	0.105591
1006.66	0.124475
1016.3	0.162884
1025.94	0.159278
1035.59	0.134895
1045.23	0.119533
1054.87	0.09925
1064.51	0.079189
1074.16	0.069024
1083.8	0.069209
1093.44	0.071317
1103.08	0.069156
1112.72	0.064482
1122.37	0.059006
1132.01	0.051597
1141.65	0.04545
1151.3	0.038615
1160.94	0.036554
1170.58	0.035015
1180.22	0.032067
1189.86	0.029504
1199.51	0.027579
1209.15	0.024423
1218.79	0.020293
1228.43	0.016529
1238.08	0.014933
1247.72	0.014116
1257.36	0.013741
1267	0.013719
1276.64	0.014036
1286.29	0.014188
1295.93	0.013968
1305.57	0.013762
1315.21	0.014071
1324.86	0.013998
1334.5	0.014177
1344.14	0.014502
1353.78	0.014953
1363.43	0.014906
1373.07	0.015162
1382.71	0.015787
1392.35	0.0164
1401.99	0.016837
1411.64	0.017703
1421.28	0.018534
1430.92	0.019155
1440.57	0.020036
1450.21	0.020428
1459.85	0.020514
1469.49	0.019666
1479.13	0.018996
1488.78	0.018658
1498.42	0.018265
1508.06	0.018439
1517.7	0.018282
1527.35	0.018566
1536.99	0.019182
1546.63	0.019771
1556.27	0.020746
1565.91	0.021306
1575.56	0.022364
1585.2	0.022985
1594.84	0.023687
1604.48	0.024512
1614.13	0.02482
1623.77	0.025299
1633.41	0.025387
1643.05	0.025452
1652.7	0.025408
1662.34	0.024332
1671.98	0.023563
1681.62	0.022913
1691.27	0.022373
1700.91	0.022495
1710.55	0.021976
1720.19	0.021716
1729.84	0.021366
1739.48	0.021365
1749.12	0.021216
1758.76	0.021063
1768.4	0.021164
1778.05	0.02122
1787.69	0.021461
1797.33	0.02183
1806.97	0.021589
1816.62	0.021932
1826.26	0.021898
1835.9	0.022215
1845.54	0.02258
1855.18	0.023028
1864.83	0.022414
1874.47	0.02276
1884.11	0.02331
1893.75	0.02431
1903.4	0.024341
1913.04	0.024033
1922.68	0.024828
1932.32	0.024114
1941.97	0.025687
1951.61	0.025104
1961.25	0.024137
1970.89	0.024737
1980.54	0.025956
1990.18	0.024747
1999.82	0.024051
2009.46	0.025115
2019.11	0.023784
2028.75	0.024266
2038.39	0.025341
2048.03	0.026667
2057.67	0.025312
2067.32	0.0251
2076.96	0.026219
2086.6	0.025655
2096.24	0.025555
2105.89	0.026494
2115.53	0.026474
2125.17	0.026367
2134.81	0.025616
2144.45	0.025634
2154.1	0.027415
2163.74	0.03058
2173.38	0.029896
2183.02	0.028981
2192.67	0.029558
2202.31	0.027812
2211.95	0.028571
2221.59	0.029049
2231.24	0.029426
2240.88	0.029471
2250.52	0.029164
2260.16	0.030342
2269.8	0.029657
2279.45	0.030336
2289.09	0.030062
2298.73	0.030264
2308.38	0.030569
2318.02	0.031284
2327.66	0.030544
2337.3	0.030906
2346.94	0.031047
2356.59	0.03145
2366.23	0.031736
2375.87	0.031255
2385.51	0.031708
2395.16	0.031897
2404.8	0.032392
2414.44	0.03226
2424.08	0.033413
2433.72	0.032468
2443.37	0.033871
2453.01	0.033837
2462.65	0.03391
2472.29	0.033969
2481.94	0.033923
2491.58	0.034715
2501.22	0.034843
2510.86	0.035209
2520.51	0.035339
2530.15	0.035504
2539.79	0.03589
2549.43	0.03648
2559.07	0.036576
2568.72	0.036922
2578.36	0.037497
2588	0.03715
2597.64	0.036879
2607.29	0.037854
2616.93	0.037583
2626.57	0.037906
2636.21	0.037543
2645.86	0.038096
2655.5	0.038586
2665.14	0.038079
2674.78	0.038186
2684.43	0.038862
2694.07	0.039196
2703.71	0.039527
2713.35	0.039856
2722.99	0.039923
2732.64	0.040471
2742.28	0.041013
2751.92	0.041421
2761.56	0.041492
2771.21	0.041801
2780.85	0.042399
2790.49	0.042864
2800.13	0.043513
2809.78	0.044034
2819.42	0.044536
2829.06	0.044918
2838.7	0.045781
2848.34	0.046231
2857.99	0.047236
2867.63	0.048064
2877.27	0.048286
2886.91	0.048127
2896.56	0.048851
2906.2	0.050545
2915.84	0.051643
2925.48	0.052128
2935.13	0.05297
2944.77	0.052142
2954.41	0.053764
2964.05	0.054456
2973.7	0.053211
2983.34	0.053463
2992.98	0.053761
3002.62	0.054744
3012.26	0.05552
3021.91	0.05599
3031.55	0.057229
3041.19	0.058068
3050.83	0.058678
3060.48	0.059631
3070.12	0.059903
3079.76	0.060118
3089.4	0.061595
3099.05	0.06332
3108.69	0.063633
3118.33	0.064946
3127.97	0.066205
3137.61	0.066703
3147.26	0.067877
3156.9	0.069207
3166.54	0.070572
3176.18	0.072089
3185.83	0.073377
3195.47	0.074357
3205.11	0.076977
3214.75	0.078077
3224.4	0.079691
3234.04	0.080811
3243.68	0.083032
3253.32	0.085372
3262.97	0.087311
3272.61	0.088713
3282.25	0.091333
3291.89	0.094858
3301.53	0.098222
3311.18	0.102454
3320.82	0.106973
3330.46	0.11368
3340.1	0.122108
3349.75	0.131315
3359.39	0.140979
3369.03	0.152442
3378.67	0.16252
3388.32	0.172405
3397.96	0.186346
3407.6	0.18637
3417.24	0.157557
3426.89	0.130456
3436.53	0.108848
3446.17	0.093632
3455.81	0.083718
3465.45	0.07749
3475.1	0.072234
3484.74	0.068333
3494.38	0.065017
3504.02	0.063518
3513.67	0.06054
3523.31	0.058447
3532.95	0.056227
3542.59	0.055393
3552.24	0.053105
3561.88	0.051628
3571.52	0.049378
3581.16	0.048577
3590.8	0.047153
3600.45	0.047126
3610.09	0.047608
3619.73	0.050121
3629.37	0.048855
3639.02	0.048709
3648.66	0.046374
3658.3	0.047526
3667.94	0.04741
3677.59	0.048064
3687.23	0.050044
3696.87	0.052756
3706.51	0.050157
3716.16	0.045123
3725.8	0.043724
3735.44	0.042848
3745.08	0.043925
3754.72	0.042761
3764.37	0.04375
3774.01	0.043236
3783.65	0.043595
3793.29	0.044843
3802.94	0.044247
3812.58	0.043909
3822.22	0.045575
3831.86	0.044873
3841.51	0.045328
3851.15	0.045011
3860.79	0.045535
3870.43	0.044947
3880.07	0.046811
3889.72	0.045912
3899.36	0.046605
3909	0.044918
3918.64	0.046475
3928.29	0.046503
3937.93	0.046208
3947.57	0.046543
3957.21	0.046874
3966.86	0.047631
3976.5	0.047791
3986.14	0.047657
3995.78	0.047966
