Measurement: Infrared, Infrared Data RAW
Mineral: Hemimorphite
Rruff sample: R040117
Ideal chemistry: Zn^2+^_4_Si_2_O_7_(OH)_2_H_2_O
Locality: Durango, Mexico
Source: University of Arizona Mineral Museum
Description: Colorless thin tabular crystals in a sheaflike aggregate
Measured chemistry: Zn_4.05_Si_1.97_O_7_((OH)_0.99_F_0.01_)_2_Â·H_2_O
x	intensity
399.193	0.102086
408.835	0.098129
418.477	0.121022
428.12	0.167739
437.762	0.206915
447.404	0.235105
457.047	0.096128
466.689	0.055983
476.331	0.060569
485.974	0.077491
495.616	0.103
505.258	0.1392
514.901	0.19464
524.543	0.257707
534.185	0.285577
543.828	0.264993
553.47	0.266912
563.112	0.235184
572.755	0.167499
582.397	0.151689
592.039	0.183029
601.682	0.188636
611.324	0.128655
620.966	0.061697
630.609	0.039305
640.251	0.036532
649.893	0.038027
659.536	0.045255
669.178	0.077025
678.82	0.106677
688.463	0.058331
698.105	0.040501
707.747	0.035632
717.39	0.032992
727.032	0.032204
736.674	0.032086
746.317	0.032688
755.959	0.033514
765.601	0.034104
775.244	0.03599
784.886	0.037948
794.528	0.042499
804.171	0.049786
813.813	0.060729
823.455	0.075207
833.098	0.101314
842.74	0.157224
852.382	0.275883
862.025	0.374397
871.667	0.22997
881.309	0.151248
890.952	0.186271
900.594	0.27529
910.236	0.412231
919.879	0.532871
929.521	0.506048
939.163	0.342293
948.806	0.252932
958.448	0.197533
968.09	0.154908
977.733	0.119302
987.375	0.093587
997.017	0.07362
1006.66	0.064226
1016.3	0.066421
1025.94	0.064658
1035.59	0.060882
1045.23	0.05632
1054.87	0.053463
1064.51	0.061384
1074.16	0.105794
1083.8	0.185399
1093.44	0.136012
1103.08	0.067897
1112.72	0.033446
1122.37	0.02145
1132.01	0.016618
1141.65	0.014249
1151.3	0.012656
1160.94	0.011794
1170.58	0.009978
1180.22	0.008963
1189.86	0.008397
1199.51	0.007435
1209.15	0.007422
1218.79	0.006621
1228.43	0.006935
1238.08	0.006388
1247.72	0.006262
1257.36	0.006311
1267	0.005893
1276.64	0.005774
1286.29	0.005359
1295.93	0.00584
1305.57	0.005426
1315.21	0.005492
1324.86	0.005472
1334.5	0.005815
1344.14	0.005973
1353.78	0.006213
1363.43	0.006965
1373.07	0.007576
1382.71	0.008355
1392.35	0.009279
1401.99	0.010552
1411.64	0.012461
1421.28	0.013841
1430.92	0.015267
1440.57	0.015941
1450.21	0.016265
1459.85	0.016245
1469.49	0.015402
1479.13	0.014595
1488.78	0.013099
1498.42	0.011994
1508.06	0.010575
1517.7	0.009819
1527.35	0.009371
1536.99	0.009921
1546.63	0.010358
1556.27	0.009966
1565.91	0.010256
1575.56	0.010434
1585.2	0.011531
1594.84	0.011949
1604.48	0.013019
1614.13	0.014636
1623.77	0.021874
1633.41	0.047108
1643.05	0.021537
1652.7	0.010985
1662.34	0.009306
1671.98	0.007918
1681.62	0.007531
1691.27	0.006431
1700.91	0.005709
1710.55	0.006026
1720.19	0.005954
1729.84	0.005781
1739.48	0.006025
1749.12	0.006127
1758.76	0.006881
1768.4	0.007423
1778.05	0.006986
1787.69	0.007185
1797.33	0.006953
1806.97	0.006482
1816.62	0.006174
1826.26	0.006037
1835.9	0.005811
1845.54	0.005461
1855.18	0.005542
1864.83	0.005218
1874.47	0.006795
1884.11	0.006058
1893.75	0.006133
1903.4	0.006324
1913.04	0.006906
1922.68	0.006459
1932.32	0.005891
1941.97	0.005842
1951.61	0.004795
1961.25	0.006011
1970.89	0.006556
1980.54	0.008557
1990.18	0.007554
1999.82	0.006253
2009.46	0.004826
2019.11	0.008725
2028.75	0.005481
2038.39	0.008235
2048.03	0.010274
2057.67	0.009233
2067.32	0.008347
2076.96	0.009834
2086.6	0.00927
2096.24	0.008095
2105.89	0.006989
2115.53	0.009349
2125.17	0.005735
2134.81	0.005878
2144.45	0.006012
2154.1	-0.001395
2163.74	0.002047
2173.38	0.003496
2183.02	0.003048
2192.67	0.006806
2202.31	0.005822
2211.95	0.006009
2221.59	0.007451
2231.24	0.009179
2240.88	0.008232
2250.52	0.008595
2260.16	0.009545
2269.8	0.009765
2279.45	0.011026
2289.09	0.01137
2298.73	0.010308
2308.38	0.010246
2318.02	0.009752
2327.66	0.009164
2337.3	0.008665
2346.94	0.00857
2356.59	0.007882
2366.23	0.007427
2375.87	0.009296
2385.51	0.009692
2395.16	0.010204
2404.8	0.009434
2414.44	0.009197
2424.08	0.009903
2433.72	0.009712
2443.37	0.010007
2453.01	0.012114
2462.65	0.010595
2472.29	0.010335
2481.94	0.010065
2491.58	0.011484
2501.22	0.012324
2510.86	0.010452
2520.51	0.011153
2530.15	0.010958
2539.79	0.011429
2549.43	0.011458
2559.07	0.012254
2568.72	0.011655
2578.36	0.010401
2588	0.012082
2597.64	0.012275
2607.29	0.012649
2616.93	0.012665
2626.57	0.011846
2636.21	0.012767
2645.86	0.013101
2655.5	0.013099
2665.14	0.012552
2674.78	0.012161
2684.43	0.01248
2694.07	0.012753
2703.71	0.012026
2713.35	0.013109
2722.99	0.013577
2732.64	0.014197
2742.28	0.013768
2751.92	0.014338
2761.56	0.013606
2771.21	0.013664
2780.85	0.014496
2790.49	0.013927
2800.13	0.01455
2809.78	0.014181
2819.42	0.015125
2829.06	0.014447
2838.7	0.015676
2848.34	0.015261
2857.99	0.016326
2867.63	0.017408
2877.27	0.016394
2886.91	0.016541
2896.56	0.016863
2906.2	0.017569
2915.84	0.018199
2925.48	0.017006
2935.13	0.017213
2944.77	0.017074
2954.41	0.017904
2964.05	0.017919
2973.7	0.018687
2983.34	0.018313
2992.98	0.019076
3002.62	0.02008
3012.26	0.019448
3021.91	0.018795
3031.55	0.020789
3041.19	0.019355
3050.83	0.021634
3060.48	0.021284
3070.12	0.020277
3079.76	0.021357
3089.4	0.021586
3099.05	0.023167
3108.69	0.02352
3118.33	0.023661
3127.97	0.024142
3137.61	0.023817
3147.26	0.024477
3156.9	0.025289
3166.54	0.026532
3176.18	0.026749
3185.83	0.027309
3195.47	0.028871
3205.11	0.030135
3214.75	0.033174
3224.4	0.031695
3234.04	0.034605
3243.68	0.034775
3253.32	0.03231
3262.97	0.033537
3272.61	0.033102
3282.25	0.03638
3291.89	0.036621
3301.53	0.038432
3311.18	0.039045
3320.82	0.040614
3330.46	0.042239
3340.1	0.043554
3349.75	0.0454
3359.39	0.045344
3369.03	0.046886
3378.67	0.048744
3388.32	0.051464
3397.96	0.05233
3407.6	0.05512
3417.24	0.05732
3426.89	0.055319
3436.53	0.058154
3446.17	0.059938
3455.81	0.058195
3465.45	0.056985
3475.1	0.058202
3484.74	0.057147
3494.38	0.052453
3504.02	0.053483
3513.67	0.051499
3523.31	0.048998
3532.95	0.048519
3542.59	0.045804
3552.24	0.044686
3561.88	0.043679
3571.52	0.042451
3581.16	0.041014
3590.8	0.03941
3600.45	0.037628
3610.09	0.034875
3619.73	0.031905
3629.37	0.029147
3639.02	0.025007
3648.66	0.020501
3658.3	0.020919
3667.94	0.019013
3677.59	0.017835
3687.23	0.017831
3696.87	0.016142
3706.51	0.017554
3716.16	0.015994
3725.8	0.016259
3735.44	0.016926
3745.08	0.016396
3754.72	0.01519
3764.37	0.016516
3774.01	0.015957
3783.65	0.015193
3793.29	0.014656
3802.94	0.017601
3812.58	0.015434
3822.22	0.015707
3831.86	0.015155
3841.51	0.016429
3851.15	0.016213
3860.79	0.016071
3870.43	0.016964
3880.07	0.014887
3889.72	0.016868
3899.36	0.01648
3909	0.017591
3918.64	0.016237
3928.29	0.017428
3937.93	0.01898
3947.57	0.01482
3957.21	0.01634
3966.86	0.017479
3976.5	0.018731
3986.14	0.016495
3995.78	0.018399
