Measurement: Infrared, Infrared Data RAW
Mineral: Kyanite
Rruff sample: R040119
Ideal chemistry: Al_2_OSiO_4_
Locality: Rutherford County, North Carolina, USA
Source: University of Arizona Mineral Museum
Description: Blue bladed crystal
Measured chemistry: (Al_0.99_Fe^3+^_0.01_)_2_OSi_1.00_O_4_
x	intensity
399.193	0.309203
408.835	0.382329
418.477	0.437677
428.12	0.429733
437.762	0.386327
447.404	0.346341
457.047	0.368061
466.689	0.321744
476.331	0.216164
485.974	0.322732
495.616	0.34234
505.258	0.345701
514.901	0.316766
524.543	0.285269
534.185	0.263724
543.828	0.311227
553.47	0.212795
563.112	0.361985
572.755	0.338759
582.397	0.363924
592.039	0.349038
601.682	0.353719
611.324	0.314335
620.966	0.284718
630.609	0.256783
640.251	0.232739
649.893	0.184521
659.536	0.196391
669.178	0.217897
678.82	0.187405
688.463	0.175989
698.105	0.136424
707.747	0.111927
717.39	0.104902
727.032	0.113742
736.674	0.092559
746.317	0.070429
755.959	0.051921
765.601	0.036201
775.244	0.029462
784.886	0.026808
794.528	0.027551
804.171	0.029135
813.813	0.03332
823.455	0.039848
833.098	0.051626
842.74	0.069416
852.382	0.101656
862.025	0.158296
871.667	0.250675
881.309	0.312485
890.952	0.330531
900.594	0.310211
910.236	0.30473
919.879	0.36791
929.521	0.421929
939.163	0.388386
948.806	0.334623
958.448	0.288461
968.09	0.257006
977.733	0.228062
987.375	0.205681
997.017	0.201683
1006.66	0.199028
1016.3	0.188402
1025.94	0.160013
1035.59	0.123896
1045.23	0.094963
1054.87	0.069497
1064.51	0.051168
1074.16	0.038928
1083.8	0.030112
1093.44	0.023968
1103.08	0.02037
1112.72	0.018763
1122.37	0.016859
1132.01	0.014632
1141.65	0.01309
1151.3	0.011581
1160.94	0.010431
1170.58	0.0094
1180.22	0.008251
1189.86	0.00739
1199.51	0.0062
1209.15	0.005948
1218.79	0.004512
1228.43	0.004489
1238.08	0.004151
1247.72	0.003724
1257.36	0.003563
1267	0.003501
1276.64	0.003409
1286.29	0.003077
1295.93	0.003341
1305.57	0.003171
1315.21	0.003075
1324.86	0.003309
1334.5	0.003366
1344.14	0.003618
1353.78	0.003506
1363.43	0.003278
1373.07	0.003471
1382.71	0.00392
1392.35	0.003625
1401.99	0.00384
1411.64	0.00412
1421.28	0.003963
1430.92	0.004347
1440.57	0.004377
1450.21	0.004822
1459.85	0.005025
1469.49	0.00531
1479.13	0.004463
1488.78	0.003926
1498.42	0.003881
1508.06	0.003454
1517.7	0.003435
1527.35	0.003889
1536.99	0.004126
1546.63	0.004531
1556.27	0.004825
1565.91	0.006127
1575.56	0.005668
1585.2	0.006631
1594.84	0.006777
1604.48	0.006519
1614.13	0.006428
1623.77	0.006261
1633.41	0.005852
1643.05	0.005978
1652.7	0.004266
1662.34	0.004977
1671.98	0.005131
1681.62	0.005065
1691.27	0.004612
1700.91	0.003824
1710.55	0.004433
1720.19	0.00446
1729.84	0.004318
1739.48	0.004596
1749.12	0.00476
1758.76	0.004144
1768.4	0.004382
1778.05	0.004437
1787.69	0.004764
1797.33	0.005029
1806.97	0.004921
1816.62	0.004442
1826.26	0.004696
1835.9	0.004645
1845.54	0.00398
1855.18	0.003944
1864.83	0.004272
1874.47	0.00356
1884.11	0.004082
1893.75	0.003739
1903.4	0.00408
1913.04	0.003568
1922.68	0.004281
1932.32	0.003041
1941.97	0.002625
1951.61	0.002218
1961.25	0.001072
1970.89	0.000823
1980.54	0.001143
1990.18	0.00173
1999.82	-0.000437
2009.46	-0.000128
2019.11	0.000959
2028.75	0.000381
2038.39	0.002733
2048.03	0.00444
2057.67	0.004931
2067.32	0.003539
2076.96	0.006277
2086.6	0.005078
2096.24	0.005187
2105.89	0.00562
2115.53	0.005796
2125.17	0.00559
2134.81	0.004702
2144.45	0.003278
2154.1	0.003286
2163.74	0.006092
2173.38	0.006352
2183.02	0.006625
2192.67	0.008955
2202.31	0.00646
2211.95	0.007052
2221.59	0.005349
2231.24	0.008228
2240.88	0.006673
2250.52	0.006845
2260.16	0.009003
2269.8	0.009039
2279.45	0.009351
2289.09	0.009536
2298.73	0.009233
2308.38	0.008916
2318.02	0.009041
2327.66	0.008157
2337.3	0.007528
2346.94	0.007779
2356.59	0.006623
2366.23	0.00613
2375.87	0.008667
2385.51	0.009093
2395.16	0.010476
2404.8	0.010949
2414.44	0.009656
2424.08	0.011625
2433.72	0.010625
2443.37	0.011303
2453.01	0.012321
2462.65	0.011051
2472.29	0.010451
2481.94	0.010611
2491.58	0.011565
2501.22	0.011947
2510.86	0.010587
2520.51	0.011902
2530.15	0.011007
2539.79	0.012
2549.43	0.012282
2559.07	0.01354
2568.72	0.012152
2578.36	0.011283
2588	0.011563
2597.64	0.013607
2607.29	0.013711
2616.93	0.013579
2626.57	0.012991
2636.21	0.012246
2645.86	0.013171
2655.5	0.013378
2665.14	0.01301
2674.78	0.012655
2684.43	0.013383
2694.07	0.013546
2703.71	0.013148
2713.35	0.013729
2722.99	0.01399
2732.64	0.014507
2742.28	0.014475
2751.92	0.014651
2761.56	0.013545
2771.21	0.014351
2780.85	0.014958
2790.49	0.014749
2800.13	0.014836
2809.78	0.015441
2819.42	0.015722
2829.06	0.015902
2838.7	0.015897
2848.34	0.017825
2857.99	0.019366
2867.63	0.018306
2877.27	0.017741
2886.91	0.01776
2896.56	0.018769
2906.2	0.019408
2915.84	0.021389
2925.48	0.022369
2935.13	0.021316
2944.77	0.020281
2954.41	0.019857
2964.05	0.019628
2973.7	0.019135
2983.34	0.017815
2992.98	0.019096
3002.62	0.020135
3012.26	0.01847
3021.91	0.019306
3031.55	0.020595
3041.19	0.017562
3050.83	0.021047
3060.48	0.020927
3070.12	0.021324
3079.76	0.021127
3089.4	0.019835
3099.05	0.02037
3108.69	0.021415
3118.33	0.022422
3127.97	0.020876
3137.61	0.021668
3147.26	0.021522
3156.9	0.022312
3166.54	0.022927
3176.18	0.021488
3185.83	0.022827
3195.47	0.021407
3205.11	0.023681
3214.75	0.023572
3224.4	0.022109
3234.04	0.024432
3243.68	0.024853
3253.32	0.022816
3262.97	0.022077
3272.61	0.023763
3282.25	0.026574
3291.89	0.022763
3301.53	0.024318
3311.18	0.022332
3320.82	0.024416
3330.46	0.025355
3340.1	0.02483
3349.75	0.025229
3359.39	0.024325
3369.03	0.024984
3378.67	0.024207
3388.32	0.02323
3397.96	0.025889
3407.6	0.025185
3417.24	0.024872
3426.89	0.023607
3436.53	0.025343
3446.17	0.025109
3455.81	0.025717
3465.45	0.025829
3475.1	0.025122
3484.74	0.026559
3494.38	0.023907
3504.02	0.024674
3513.67	0.024322
3523.31	0.024067
3532.95	0.024843
3542.59	0.022405
3552.24	0.023223
3561.88	0.024087
3571.52	0.023129
3581.16	0.022889
3590.8	0.022513
3600.45	0.02181
3610.09	0.021359
3619.73	0.022514
3629.37	0.021336
3639.02	0.020828
3648.66	0.018323
3658.3	0.020571
3667.94	0.020374
3677.59	0.02116
3687.23	0.019197
3696.87	0.019884
3706.51	0.021559
3716.16	0.02136
3725.8	0.019377
3735.44	0.018119
3745.08	0.0182
3754.72	0.018609
3764.37	0.018062
3774.01	0.020753
3783.65	0.019033
3793.29	0.019058
3802.94	0.020685
3812.58	0.019262
3822.22	0.019309
3831.86	0.019952
3841.51	0.021446
3851.15	0.0198
3860.79	0.020396
3870.43	0.01973
3880.07	0.022114
3889.72	0.018827
3899.36	0.019108
3909	0.02031
3918.64	0.018657
3928.29	0.020246
3937.93	0.022893
3947.57	0.01744
3957.21	0.020321
3966.86	0.019934
3976.5	0.022246
3986.14	0.019108
3995.78	0.020726
