Measurement: Infrared, Infrared Data RAW
Mineral: Mesolite
Rruff sample: R040139
Ideal chemistry: Na_2_Ca_2_(Si_9_Al_6_)O_30_8H_2_O
Locality: Lake Superior beach,  41 miles north of Tofte, Minnesota, USA
Source: University of Arizona Mineral Museum
Description: Aggregate of white radiating thin acicular crystals.
Measured chemistry: Na_1.95_Ca_1.89_(Si_9.21_Al_5.82_)O_30_Â·8H_2_O
x	intensity
399.193	0.195549
408.835	0.20604
418.477	0.264021
428.12	0.218136
437.762	0.165658
447.404	0.121833
457.047	0.111478
466.689	0.128507
476.331	0.134683
485.974	0.138265
495.616	0.146877
505.258	0.141062
514.901	0.127722
524.543	0.115955
534.185	0.120551
543.828	0.122924
553.47	0.110733
563.112	0.108243
572.755	0.108343
582.397	0.120291
592.039	0.123247
601.682	0.134627
611.324	0.158682
620.966	0.160545
630.609	0.148986
640.251	0.120763
649.893	0.097445
659.536	0.095572
669.178	0.108089
678.82	0.099533
688.463	0.117232
698.105	0.094216
707.747	0.079177
717.39	0.086413
727.032	0.077143
736.674	0.049808
746.317	0.03606
755.959	0.031758
765.601	0.030937
775.244	0.031311
784.886	0.029968
794.528	0.02645
804.171	0.024337
813.813	0.024217
823.455	0.025444
833.098	0.027889
842.74	0.031805
852.382	0.03677
862.025	0.043019
871.667	0.051168
881.309	0.061359
890.952	0.077044
900.594	0.102408
910.236	0.146963
919.879	0.222501
929.521	0.33624
939.163	0.432281
948.806	0.294173
958.448	0.296711
968.09	0.419972
977.733	0.448086
987.375	0.362351
997.017	0.314744
1006.66	0.299981
1016.3	0.27666
1025.94	0.22497
1035.59	0.178703
1045.23	0.161589
1054.87	0.151189
1064.51	0.131756
1074.16	0.102608
1083.8	0.114052
1093.44	0.167589
1103.08	0.139113
1112.72	0.11395
1122.37	0.086822
1132.01	0.068539
1141.65	0.046646
1151.3	0.032859
1160.94	0.025922
1170.58	0.021349
1180.22	0.017968
1189.86	0.014923
1199.51	0.012463
1209.15	0.010853
1218.79	0.00934
1228.43	0.008062
1238.08	0.0073
1247.72	0.006991
1257.36	0.006522
1267	0.006138
1276.64	0.00589
1286.29	0.005964
1295.93	0.005522
1305.57	0.005466
1315.21	0.005157
1324.86	0.005223
1334.5	0.004859
1344.14	0.005158
1353.78	0.005101
1363.43	0.005309
1373.07	0.004996
1382.71	0.005256
1392.35	0.005205
1401.99	0.005312
1411.64	0.005815
1421.28	0.005997
1430.92	0.005977
1440.57	0.006192
1450.21	0.006228
1459.85	0.006151
1469.49	0.005878
1479.13	0.005513
1488.78	0.00543
1498.42	0.005619
1508.06	0.006036
1517.7	0.005839
1527.35	0.006129
1536.99	0.00708
1546.63	0.007991
1556.27	0.009266
1565.91	0.010057
1575.56	0.012295
1585.2	0.014924
1594.84	0.015873
1604.48	0.013693
1614.13	0.012874
1623.77	0.014731
1633.41	0.019537
1643.05	0.03415
1652.7	0.032349
1662.34	0.044911
1671.98	0.017309
1681.62	0.009551
1691.27	0.006853
1700.91	0.006336
1710.55	0.005269
1720.19	0.004829
1729.84	0.004449
1739.48	0.004363
1749.12	0.003961
1758.76	0.003675
1768.4	0.003436
1778.05	0.003314
1787.69	0.003034
1797.33	0.002703
1806.97	0.00248
1816.62	0.001982
1826.26	0.001594
1835.9	0.001325
1845.54	0.000737
1855.18	0.00047
1864.83	0.000277
1874.47	-0.000305
1884.11	-0.000915
1893.75	-0.000389
1903.4	-0.00051
1913.04	-0.001287
1922.68	-0.002055
1932.32	-0.002743
1941.97	-0.005513
1951.61	-0.004851
1961.25	-0.006611
1970.89	-0.008165
1980.54	-0.006649
1990.18	-0.003225
1999.82	-0.005294
2009.46	-0.006575
2019.11	-0.006224
2028.75	-0.007737
2038.39	-0.005215
2048.03	-0.003358
2057.67	-0.000528
2067.32	-0.000499
2076.96	2.7e-05
2086.6	0.001196
2096.24	-0.0008
2105.89	-0.000152
2115.53	0.000876
2125.17	4.9e-05
2134.81	-0.001962
2144.45	-0.002066
2154.1	-0.004642
2163.74	0.000874
2173.38	-0.001384
2183.02	-0.00097
2192.67	0.000368
2202.31	0.000178
2211.95	0.000886
2221.59	0.001461
2231.24	0.003474
2240.88	0.002836
2250.52	0.001872
2260.16	0.003582
2269.8	0.005013
2279.45	0.005019
2289.09	0.005111
2298.73	0.005919
2308.38	0.006039
2318.02	0.005947
2327.66	0.006089
2337.3	0.005542
2346.94	0.005261
2356.59	0.005486
2366.23	0.0049
2375.87	0.004446
2385.51	0.004599
2395.16	0.003923
2404.8	0.003646
2414.44	0.003818
2424.08	0.004837
2433.72	0.003881
2443.37	0.004567
2453.01	0.004118
2462.65	0.003582
2472.29	0.003931
2481.94	0.004209
2491.58	0.003997
2501.22	0.003919
2510.86	0.004275
2520.51	0.004019
2530.15	0.003822
2539.79	0.004536
2549.43	0.004522
2559.07	0.003931
2568.72	0.004432
2578.36	0.004691
2588	0.004827
2597.64	0.00498
2607.29	0.00573
2616.93	0.00542
2626.57	0.005763
2636.21	0.006181
2645.86	0.006047
2655.5	0.006122
2665.14	0.005841
2674.78	0.005703
2684.43	0.005604
2694.07	0.005393
2703.71	0.005921
2713.35	0.00633
2722.99	0.006077
2732.64	0.006607
2742.28	0.006727
2751.92	0.00727
2761.56	0.007007
2771.21	0.00821
2780.85	0.007226
2790.49	0.00749
2800.13	0.007391
2809.78	0.006972
2819.42	0.007903
2829.06	0.007971
2838.7	0.007583
2848.34	0.008169
2857.99	0.009504
2867.63	0.009279
2877.27	0.009223
2886.91	0.009925
2896.56	0.009798
2906.2	0.010239
2915.84	0.01103
2925.48	0.010833
2935.13	0.01276
2944.77	0.011878
2954.41	0.013214
2964.05	0.012757
2973.7	0.013799
2983.34	0.014525
2992.98	0.015389
3002.62	0.01507
3012.26	0.016248
3021.91	0.016752
3031.55	0.018032
3041.19	0.018414
3050.83	0.019014
3060.48	0.019191
3070.12	0.019779
3079.76	0.020421
3089.4	0.021555
3099.05	0.022271
3108.69	0.023728
3118.33	0.024777
3127.97	0.025307
3137.61	0.028013
3147.26	0.030161
3156.9	0.031887
3166.54	0.036228
3176.18	0.041224
3185.83	0.047031
3195.47	0.052092
3205.11	0.052652
3214.75	0.048526
3224.4	0.044391
3234.04	0.044935
3243.68	0.045463
3253.32	0.047148
3262.97	0.047875
3272.61	0.04882
3282.25	0.045636
3291.89	0.042071
3301.53	0.04191
3311.18	0.042159
3320.82	0.044147
3330.46	0.047462
3340.1	0.054947
3349.75	0.062208
3359.39	0.068451
3369.03	0.06896
3378.67	0.072092
3388.32	0.074199
3397.96	0.07327
3407.6	0.064972
3417.24	0.057474
3426.89	0.052758
3436.53	0.050372
3446.17	0.05073
3455.81	0.051429
3465.45	0.052946
3475.1	0.051732
3484.74	0.049318
3494.38	0.04844
3504.02	0.051987
3513.67	0.059835
3523.31	0.072411
3532.95	0.082335
3542.59	0.068889
3552.24	0.05895
3561.88	0.054601
3571.52	0.049334
3581.16	0.040272
3590.8	0.032467
3600.45	0.030134
3610.09	0.024807
3619.73	0.020819
3629.37	0.017879
3639.02	0.017114
3648.66	0.012344
3658.3	0.011829
3667.94	0.008907
3677.59	0.013558
3687.23	0.008193
3696.87	0.008378
3706.51	0.008019
3716.16	0.006321
3725.8	0.008317
3735.44	0.008539
3745.08	0.006803
3754.72	0.009469
3764.37	0.008757
3774.01	0.008958
3783.65	0.008201
3793.29	0.006581
3802.94	0.008335
3812.58	0.008125
3822.22	0.009899
3831.86	0.007568
3841.51	0.010178
3851.15	0.011487
3860.79	0.008806
3870.43	0.007958
3880.07	0.010573
3889.72	0.007919
3899.36	0.010101
3909	0.010254
3918.64	0.008991
3928.29	0.009131
3937.93	0.009452
3947.57	0.01016
3957.21	0.008991
3966.86	0.010413
3976.5	0.009
3986.14	0.008927
3995.78	0.00848
