Measurement: Infrared, Infrared Data RAW
Mineral: Metatorbernite
Rruff sample: R040171
Ideal chemistry: Cu^2+^(U^6+^O_2_)_2_(PO_4_)_2_8H_2_O
Locality: La Luz de Cobre, Sonora, Mexico
Source: University of Arizona Mineral Museum
Description: Green thin tabular crystals
Measured chemistry: (Cu_0.80_[box]_0.20_)_Σ=1_(U_1.00_O_2_)_2_(P_1.00_O_4_)_2_·8((H_2_O)_0.95_(H_3_O)^+^_0.05_)
x	intensity
399.193	0.056007
408.835	0.062405
418.477	0.066693
428.12	0.077189
437.762	0.088507
447.404	0.105266
457.047	0.123366
466.689	0.128856
476.331	0.108471
485.974	0.098932
495.616	0.095135
505.258	0.092758
514.901	0.096275
524.543	0.111197
534.185	0.148595
543.828	0.224394
553.47	0.179193
563.112	0.116932
572.755	0.110849
582.397	0.116302
592.039	0.126908
601.682	0.139072
611.324	0.143258
620.966	0.134283
630.609	0.125448
640.251	0.116592
649.893	0.119858
659.536	0.133033
669.178	0.147182
678.82	0.156532
688.463	0.158315
698.105	0.153318
707.747	0.142083
717.39	0.130144
727.032	0.119602
736.674	0.110788
746.317	0.103407
755.959	0.099838
765.601	0.101014
775.244	0.108506
784.886	0.124438
794.528	0.145804
804.171	0.11195
813.813	0.100951
823.455	0.08251
833.098	0.088073
842.74	0.09656
852.382	0.110834
862.025	0.133176
871.667	0.164415
881.309	0.189429
890.952	0.226496
900.594	0.271716
910.236	0.284313
919.879	0.234864
929.521	0.232228
939.163	0.191669
948.806	0.220016
958.448	0.275426
968.09	0.347248
977.733	0.430296
987.375	0.500598
997.017	0.481518
1006.66	0.39085
1016.3	0.327361
1025.94	0.268474
1035.59	0.225204
1045.23	0.192418
1054.87	0.164129
1064.51	0.139279
1074.16	0.120553
1083.8	0.115789
1093.44	0.120981
1103.08	0.1156
1112.72	0.09089
1122.37	0.06503
1132.01	0.053395
1141.65	0.036369
1151.3	0.030492
1160.94	0.025909
1170.58	0.022163
1180.22	0.019339
1189.86	0.017828
1199.51	0.016527
1209.15	0.015839
1218.79	0.015389
1228.43	0.015401
1238.08	0.015428
1247.72	0.015864
1257.36	0.016272
1267	0.016479
1276.64	0.017038
1286.29	0.017619
1295.93	0.017824
1305.57	0.018075
1315.21	0.018337
1324.86	0.018597
1334.5	0.019025
1344.14	0.019578
1353.78	0.020328
1363.43	0.021325
1373.07	0.022887
1382.71	0.024392
1392.35	0.026338
1401.99	0.02933
1411.64	0.032341
1421.28	0.035211
1430.92	0.036704
1440.57	0.037142
1450.21	0.036846
1459.85	0.035867
1469.49	0.034777
1479.13	0.033021
1488.78	0.031545
1498.42	0.030464
1508.06	0.030321
1517.7	0.030361
1527.35	0.030176
1536.99	0.030564
1546.63	0.031008
1556.27	0.031455
1565.91	0.032238
1575.56	0.033404
1585.2	0.035843
1594.84	0.038488
1604.48	0.04182
1614.13	0.045605
1623.77	0.048228
1633.41	0.048984
1643.05	0.048036
1652.7	0.045585
1662.34	0.042928
1671.98	0.039816
1681.62	0.036286
1691.27	0.033014
1700.91	0.029923
1710.55	0.028063
1720.19	0.026113
1729.84	0.025021
1739.48	0.02379
1749.12	0.023219
1758.76	0.022685
1768.4	0.022281
1778.05	0.021615
1787.69	0.020947
1797.33	0.02088
1806.97	0.019706
1816.62	0.018958
1826.26	0.019008
1835.9	0.018904
1845.54	0.019039
1855.18	0.019027
1864.83	0.019233
1874.47	0.019204
1884.11	0.019782
1893.75	0.019157
1903.4	0.019179
1913.04	0.017804
1922.68	0.018132
1932.32	0.016835
1941.97	0.016394
1951.61	0.016041
1961.25	0.012693
1970.89	0.014049
1980.54	0.016632
1990.18	0.014952
1999.82	0.012956
2009.46	0.013861
2019.11	0.011399
2028.75	0.013165
2038.39	0.015262
2048.03	0.017182
2057.67	0.020204
2067.32	0.021876
2076.96	0.023801
2086.6	0.024311
2096.24	0.024968
2105.89	0.024476
2115.53	0.025332
2125.17	0.023283
2134.81	0.025005
2144.45	0.023781
2154.1	0.022433
2163.74	0.02383
2173.38	0.024849
2183.02	0.024887
2192.67	0.023349
2202.31	0.025488
2211.95	0.026203
2221.59	0.025145
2231.24	0.027142
2240.88	0.027133
2250.52	0.028682
2260.16	0.030328
2269.8	0.030114
2279.45	0.030426
2289.09	0.032182
2298.73	0.032037
2308.38	0.033515
2318.02	0.034449
2327.66	0.034434
2337.3	0.03453
2346.94	0.035035
2356.59	0.036312
2366.23	0.035946
2375.87	0.034217
2385.51	0.034738
2395.16	0.035166
2404.8	0.035559
2414.44	0.035305
2424.08	0.035746
2433.72	0.035756
2443.37	0.037241
2453.01	0.036718
2462.65	0.037284
2472.29	0.037477
2481.94	0.037569
2491.58	0.038425
2501.22	0.038704
2510.86	0.03885
2520.51	0.039368
2530.15	0.039619
2539.79	0.040322
2549.43	0.040203
2559.07	0.042441
2568.72	0.042709
2578.36	0.042667
2588	0.043942
2597.64	0.044814
2607.29	0.046031
2616.93	0.046714
2626.57	0.04778
2636.21	0.048785
2645.86	0.049658
2655.5	0.05135
2665.14	0.052125
2674.78	0.053139
2684.43	0.054666
2694.07	0.055435
2703.71	0.057776
2713.35	0.058443
2722.99	0.060006
2732.64	0.061902
2742.28	0.063477
2751.92	0.065691
2761.56	0.067004
2771.21	0.069533
2780.85	0.072217
2790.49	0.075707
2800.13	0.077666
2809.78	0.08193
2819.42	0.085712
2829.06	0.090107
2838.7	0.095143
2848.34	0.099723
2857.99	0.106489
2867.63	0.111951
2877.27	0.119708
2886.91	0.127494
2896.56	0.136819
2906.2	0.144807
2915.84	0.152719
2925.48	0.158078
2935.13	0.15951
2944.77	0.160925
2954.41	0.158911
2964.05	0.15719
2973.7	0.154081
2983.34	0.15069
2992.98	0.147848
3002.62	0.145159
3012.26	0.142115
3021.91	0.140269
3031.55	0.13686
3041.19	0.135434
3050.83	0.133361
3060.48	0.131017
3070.12	0.128143
3079.76	0.127343
3089.4	0.124766
3099.05	0.124889
3108.69	0.122136
3118.33	0.122543
3127.97	0.122932
3137.61	0.122199
3147.26	0.122609
3156.9	0.123429
3166.54	0.122557
3176.18	0.12611
3185.83	0.126873
3195.47	0.130784
3205.11	0.134258
3214.75	0.138451
3224.4	0.142122
3234.04	0.148626
3243.68	0.155107
3253.32	0.158926
3262.97	0.16328
3272.61	0.167885
3282.25	0.169912
3291.89	0.172368
3301.53	0.174121
3311.18	0.177353
3320.82	0.182941
3330.46	0.191291
3340.1	0.198807
3349.75	0.199563
3359.39	0.193701
3369.03	0.18014
3378.67	0.168376
3388.32	0.161495
3397.96	0.161081
3407.6	0.159493
3417.24	0.152828
3426.89	0.142185
3436.53	0.129743
3446.17	0.115494
3455.81	0.104231
3465.45	0.096484
3475.1	0.088947
3484.74	0.083369
3494.38	0.079027
3504.02	0.075986
3513.67	0.070278
3523.31	0.066786
3532.95	0.063539
3542.59	0.059168
3552.24	0.056895
3561.88	0.054197
3571.52	0.050189
3581.16	0.047551
3590.8	0.044079
3600.45	0.041431
3610.09	0.037095
3619.73	0.035169
3629.37	0.032746
3639.02	0.028914
3648.66	0.028764
3658.3	0.027652
3667.94	0.026401
3677.59	0.027876
3687.23	0.025532
3696.87	0.026047
3706.51	0.026464
3716.16	0.024239
3725.8	0.025742
3735.44	0.025084
3745.08	0.024911
3754.72	0.025632
3764.37	0.025755
3774.01	0.026846
3783.65	0.0274
3793.29	0.027284
3802.94	0.028126
3812.58	0.028012
3822.22	0.028189
3831.86	0.02824
3841.51	0.026902
3851.15	0.02646
3860.79	0.030257
3870.43	0.027258
3880.07	0.029023
3889.72	0.029323
3899.36	0.029626
3909	0.031228
3918.64	0.02874
3928.29	0.030029
3937.93	0.029399
3947.57	0.028695
3957.21	0.031245
3966.86	0.029858
3976.5	0.030824
3986.14	0.031573
3995.78	0.032243
