Measurement: Infrared, Infrared Data RAW
Mineral: Olivenite
Rruff sample: R040181
Ideal chemistry: Cu^2+^_2_As^5+^O_4_(OH)
Locality: Majuba Hill, Pershing County, Nevada, USA
Source: University of Arizona Mineral Museum
Description: Greenish blue prismatic, untwinned. Structure for this sample reported in Li et al (2008).
Measured chemistry: (Cu_0.98_[box]_0.02_)_2_(As_0.90_P_0.10_O_4_)(OH)_0.92_
x	intensity
399.193	0.080958
408.835	0.070327
418.477	0.086249
428.12	0.107637
437.762	0.130455
447.404	0.142349
457.047	0.133741
466.689	0.124574
476.331	0.13427
485.974	0.151252
495.616	0.146638
505.258	0.129108
514.901	0.14667
524.543	0.185993
534.185	0.190753
543.828	0.167907
553.47	0.128711
563.112	0.089017
572.755	0.05991
582.397	0.047262
592.039	0.049631
601.682	0.051535
611.324	0.04382
620.966	0.044763
630.609	0.057434
640.251	0.048435
649.893	0.043764
659.536	0.045742
669.178	0.048782
678.82	0.051579
688.463	0.055257
698.105	0.060664
707.747	0.068335
717.39	0.079759
727.032	0.096623
736.674	0.119903
746.317	0.151378
755.959	0.189064
765.601	0.221282
775.244	0.233615
784.886	0.23908
794.528	0.229082
804.171	0.21292
813.813	0.206367
823.455	0.188575
833.098	0.166246
842.74	0.155701
852.382	0.14892
862.025	0.137915
871.667	0.12966
881.309	0.109289
890.952	0.083313
900.594	0.061279
910.236	0.0527
919.879	0.056303
929.521	0.066179
939.163	0.079666
948.806	0.081874
958.448	0.071904
968.09	0.060539
977.733	0.059286
987.375	0.051362
997.017	0.045651
1006.66	0.04799
1016.3	0.058197
1025.94	0.075166
1035.59	0.081419
1045.23	0.066523
1054.87	0.058647
1064.51	0.058678
1074.16	0.06806
1083.8	0.073033
1093.44	0.05147
1103.08	0.038224
1112.72	0.031564
1122.37	0.027075
1132.01	0.023801
1141.65	0.021437
1151.3	0.019703
1160.94	0.018143
1170.58	0.016326
1180.22	0.014715
1189.86	0.013529
1199.51	0.01239
1209.15	0.011426
1218.79	0.010705
1228.43	0.010261
1238.08	0.009988
1247.72	0.009682
1257.36	0.009497
1267	0.009636
1276.64	0.009838
1286.29	0.009999
1295.93	0.010075
1305.57	0.009964
1315.21	0.010264
1324.86	0.010375
1334.5	0.010635
1344.14	0.01075
1353.78	0.011022
1363.43	0.010807
1373.07	0.010817
1382.71	0.011008
1392.35	0.011321
1401.99	0.011474
1411.64	0.011622
1421.28	0.011895
1430.92	0.011955
1440.57	0.012299
1450.21	0.012357
1459.85	0.012641
1469.49	0.012431
1479.13	0.012305
1488.78	0.012803
1498.42	0.01264
1508.06	0.013017
1517.7	0.013159
1527.35	0.013374
1536.99	0.013845
1546.63	0.014299
1556.27	0.015199
1565.91	0.015616
1575.56	0.016526
1585.2	0.017066
1594.84	0.017715
1604.48	0.0185
1614.13	0.019054
1623.77	0.019525
1633.41	0.019582
1643.05	0.019379
1652.7	0.019403
1662.34	0.018522
1671.98	0.017675
1681.62	0.017291
1691.27	0.016406
1700.91	0.016502
1710.55	0.015752
1720.19	0.015567
1729.84	0.015131
1739.48	0.015079
1749.12	0.015123
1758.76	0.014747
1768.4	0.014917
1778.05	0.014963
1787.69	0.015163
1797.33	0.01544
1806.97	0.015275
1816.62	0.015916
1826.26	0.015564
1835.9	0.016166
1845.54	0.016424
1855.18	0.016495
1864.83	0.015787
1874.47	0.016064
1884.11	0.016651
1893.75	0.017462
1903.4	0.017616
1913.04	0.01706
1922.68	0.018493
1932.32	0.018261
1941.97	0.018943
1951.61	0.01918
1961.25	0.019723
1970.89	0.020103
1980.54	0.02179
1990.18	0.019909
1999.82	0.019516
2009.46	0.021963
2019.11	0.021765
2028.75	0.021572
2038.39	0.021982
2048.03	0.021242
2057.67	0.02001
2067.32	0.019394
2076.96	0.019815
2086.6	0.018896
2096.24	0.019458
2105.89	0.02013
2115.53	0.019759
2125.17	0.019824
2134.81	0.019646
2144.45	0.020059
2154.1	0.021254
2163.74	0.025438
2173.38	0.023601
2183.02	0.023574
2192.67	0.023716
2202.31	0.02327
2211.95	0.022542
2221.59	0.024136
2231.24	0.023956
2240.88	0.023826
2250.52	0.023059
2260.16	0.024411
2269.8	0.023558
2279.45	0.023432
2289.09	0.022776
2298.73	0.023598
2308.38	0.022969
2318.02	0.023906
2327.66	0.023816
2337.3	0.024502
2346.94	0.023066
2356.59	0.02505
2366.23	0.02578
2375.87	0.023352
2385.51	0.023117
2395.16	0.023686
2404.8	0.023779
2414.44	0.023508
2424.08	0.024556
2433.72	0.024101
2443.37	0.025192
2453.01	0.025687
2462.65	0.025
2472.29	0.025213
2481.94	0.025533
2491.58	0.025663
2501.22	0.026044
2510.86	0.02603
2520.51	0.026549
2530.15	0.026006
2539.79	0.026467
2549.43	0.026997
2559.07	0.027082
2568.72	0.027164
2578.36	0.028098
2588	0.026827
2597.64	0.026478
2607.29	0.027659
2616.93	0.027132
2626.57	0.027882
2636.21	0.027106
2645.86	0.02724
2655.5	0.027526
2665.14	0.027434
2674.78	0.027565
2684.43	0.028131
2694.07	0.028167
2703.71	0.0279
2713.35	0.02862
2722.99	0.02833
2732.64	0.028884
2742.28	0.029378
2751.92	0.030084
2761.56	0.030095
2771.21	0.030001
2780.85	0.031044
2790.49	0.031143
2800.13	0.032197
2809.78	0.031766
2819.42	0.032635
2829.06	0.032869
2838.7	0.033335
2848.34	0.033529
2857.99	0.034013
2867.63	0.03425
2877.27	0.0349
2886.91	0.035362
2896.56	0.035261
2906.2	0.036564
2915.84	0.037097
2925.48	0.038084
2935.13	0.038588
2944.77	0.037938
2954.41	0.039237
2964.05	0.04037
2973.7	0.039053
2983.34	0.039296
2992.98	0.039946
3002.62	0.040836
3012.26	0.040764
3021.91	0.041056
3031.55	0.041814
3041.19	0.042685
3050.83	0.042931
3060.48	0.043626
3070.12	0.043453
3079.76	0.043978
3089.4	0.044577
3099.05	0.045557
3108.69	0.045848
3118.33	0.046266
3127.97	0.046837
3137.61	0.046551
3147.26	0.047375
3156.9	0.04784
3166.54	0.048011
3176.18	0.048069
3185.83	0.048385
3195.47	0.047879
3205.11	0.048672
3214.75	0.048518
3224.4	0.048649
3234.04	0.04834
3243.68	0.048679
3253.32	0.049682
3262.97	0.04989
3272.61	0.049115
3282.25	0.05021
3291.89	0.050681
3301.53	0.051444
3311.18	0.051692
3320.82	0.051628
3330.46	0.051512
3340.1	0.052287
3349.75	0.051648
3359.39	0.051192
3369.03	0.051908
3378.67	0.05271
3388.32	0.053819
3397.96	0.056657
3407.6	0.061619
3417.24	0.068216
3426.89	0.071905
3436.53	0.067915
3446.17	0.064179
3455.81	0.057618
3465.45	0.052344
3475.1	0.048668
3484.74	0.045923
3494.38	0.043956
3504.02	0.042254
3513.67	0.041326
3523.31	0.040389
3532.95	0.038549
3542.59	0.039501
3552.24	0.038561
3561.88	0.036665
3571.52	0.035605
3581.16	0.036032
3590.8	0.034614
3600.45	0.034843
3610.09	0.035219
3619.73	0.03483
3629.37	0.03383
3639.02	0.033688
3648.66	0.032376
3658.3	0.032599
3667.94	0.031972
3677.59	0.032028
3687.23	0.031739
3696.87	0.031434
3706.51	0.032662
3716.16	0.031058
3725.8	0.031985
3735.44	0.031473
3745.08	0.032723
3754.72	0.031243
3764.37	0.030971
3774.01	0.031302
3783.65	0.031122
3793.29	0.031596
3802.94	0.031911
3812.58	0.031587
3822.22	0.031459
3831.86	0.031342
3841.51	0.031958
3851.15	0.032098
3860.79	0.032467
3870.43	0.032127
3880.07	0.031849
3889.72	0.032546
3899.36	0.032461
3909	0.031444
3918.64	0.03206
3928.29	0.031549
3937.93	0.032069
3947.57	0.031763
3957.21	0.032309
3966.86	0.032762
3976.5	0.032157
3986.14	0.032561
3995.78	0.031899
