Measurement: Infrared, Infrared Data RAW
Mineral: Paravauxite
Rruff sample: R040179
Ideal chemistry: Fe^2+^Al_2_(PO_4_)_2_(OH)_2_8H_2_O
Locality: Mina Siglo XX, Llallagua, Bolivia
Source: University of Arizona Mineral Museum
Description: Colorless short prismatic crystals in subparallel groups
Measured chemistry: (Fe_0.93_Mg_0.03_Mn_0.02_)Al_1.94_(P_2.05_O_4_)_2_((OH)_0.99_F_0.01_)_2_Â·8H_2_O
x	intensity
399.193	0.165512
408.835	0.151765
418.477	0.154612
428.12	0.166263
437.762	0.18401
447.404	0.182507
457.047	0.168441
466.689	0.140976
476.331	0.118028
485.974	0.118738
495.616	0.135493
505.258	0.159644
514.901	0.175463
524.543	0.171226
534.185	0.165372
543.828	0.156794
553.47	0.150754
563.112	0.157383
572.755	0.17003
582.397	0.175691
592.039	0.163488
601.682	0.149724
611.324	0.142725
620.966	0.140012
630.609	0.144262
640.251	0.154528
649.893	0.153527
659.536	0.136339
669.178	0.127065
678.82	0.120744
688.463	0.113703
698.105	0.105373
707.747	0.097181
717.39	0.091435
727.032	0.086706
736.674	0.080867
746.317	0.074164
755.959	0.067001
765.601	0.060846
775.244	0.056837
784.886	0.054144
794.528	0.052573
804.171	0.052068
813.813	0.051622
823.455	0.051036
833.098	0.050363
842.74	0.050312
852.382	0.050581
862.025	0.051814
871.667	0.053397
881.309	0.055779
890.952	0.059513
900.594	0.064703
910.236	0.071608
919.879	0.081781
929.521	0.09537
939.163	0.11223
948.806	0.132405
958.448	0.148561
968.09	0.158801
977.733	0.17704
987.375	0.212505
997.017	0.242808
1006.66	0.248809
1016.3	0.293512
1025.94	0.314139
1035.59	0.291369
1045.23	0.262386
1054.87	0.230115
1064.51	0.193107
1074.16	0.159431
1083.8	0.128308
1093.44	0.10099
1103.08	0.079324
1112.72	0.062808
1122.37	0.051391
1132.01	0.044242
1141.65	0.04216
1151.3	0.04935
1160.94	0.04101
1170.58	0.029819
1180.22	0.025676
1189.86	0.022552
1199.51	0.020105
1209.15	0.018428
1218.79	0.017326
1228.43	0.016112
1238.08	0.014868
1247.72	0.013757
1257.36	0.012953
1267	0.012743
1276.64	0.012979
1286.29	0.013054
1295.93	0.013287
1305.57	0.013499
1315.21	0.013676
1324.86	0.013924
1334.5	0.013891
1344.14	0.013823
1353.78	0.014249
1363.43	0.014286
1373.07	0.014606
1382.71	0.015016
1392.35	0.015383
1401.99	0.015789
1411.64	0.016175
1421.28	0.016823
1430.92	0.017154
1440.57	0.017638
1450.21	0.01811
1459.85	0.018524
1469.49	0.018598
1479.13	0.019034
1488.78	0.019727
1498.42	0.020292
1508.06	0.021354
1517.7	0.021955
1527.35	0.022909
1536.99	0.024355
1546.63	0.025663
1556.27	0.027888
1565.91	0.030033
1575.56	0.033214
1585.2	0.036173
1594.84	0.040476
1604.48	0.045068
1614.13	0.048904
1623.77	0.051067
1633.41	0.050522
1643.05	0.049336
1652.7	0.047649
1662.34	0.042624
1671.98	0.036748
1681.62	0.030768
1691.27	0.025317
1700.91	0.022171
1710.55	0.019331
1720.19	0.017565
1729.84	0.016299
1739.48	0.015836
1749.12	0.014979
1758.76	0.014556
1768.4	0.01454
1778.05	0.014343
1787.69	0.014247
1797.33	0.014473
1806.97	0.014267
1816.62	0.014388
1826.26	0.014535
1835.9	0.014833
1845.54	0.014888
1855.18	0.014641
1864.83	0.014361
1874.47	0.014547
1884.11	0.014729
1893.75	0.015317
1903.4	0.015049
1913.04	0.014367
1922.68	0.014732
1932.32	0.014096
1941.97	0.014604
1951.61	0.013902
1961.25	0.013723
1970.89	0.012841
1980.54	0.013883
1990.18	0.012452
1999.82	0.012181
2009.46	0.012471
2019.11	0.012031
2028.75	0.012192
2038.39	0.01209
2048.03	0.013244
2057.67	0.014568
2067.32	0.014248
2076.96	0.014857
2086.6	0.01456
2096.24	0.014286
2105.89	0.015574
2115.53	0.015402
2125.17	0.015048
2134.81	0.014323
2144.45	0.013441
2154.1	0.014007
2163.74	0.019571
2173.38	0.019174
2183.02	0.020175
2192.67	0.020907
2202.31	0.020863
2211.95	0.020958
2221.59	0.021563
2231.24	0.022898
2240.88	0.022449
2250.52	0.022086
2260.16	0.024124
2269.8	0.02324
2279.45	0.023413
2289.09	0.02404
2298.73	0.024573
2308.38	0.024962
2318.02	0.025646
2327.66	0.025405
2337.3	0.025778
2346.94	0.025004
2356.59	0.025987
2366.23	0.026319
2375.87	0.025069
2385.51	0.024929
2395.16	0.025191
2404.8	0.025188
2414.44	0.025324
2424.08	0.0261
2433.72	0.025865
2443.37	0.027019
2453.01	0.026857
2462.65	0.026793
2472.29	0.027606
2481.94	0.027862
2491.58	0.028092
2501.22	0.028898
2510.86	0.029162
2520.51	0.029747
2530.15	0.030269
2539.79	0.031161
2549.43	0.03146
2559.07	0.031516
2568.72	0.03294
2578.36	0.033246
2588	0.03273
2597.64	0.032802
2607.29	0.033782
2616.93	0.034392
2626.57	0.034886
2636.21	0.034449
2645.86	0.035508
2655.5	0.036828
2665.14	0.036575
2674.78	0.037491
2684.43	0.038445
2694.07	0.039231
2703.71	0.040106
2713.35	0.04131
2722.99	0.041874
2732.64	0.0435
2742.28	0.044526
2751.92	0.04626
2761.56	0.047459
2771.21	0.048754
2780.85	0.050741
2790.49	0.05215
2800.13	0.054415
2809.78	0.055853
2819.42	0.057929
2829.06	0.059942
2838.7	0.06204
2848.34	0.06318
2857.99	0.065527
2867.63	0.068007
2877.27	0.069934
2886.91	0.071231
2896.56	0.072688
2906.2	0.075383
2915.84	0.076623
2925.48	0.077376
2935.13	0.079139
2944.77	0.079228
2954.41	0.080978
2964.05	0.082987
2973.7	0.081936
2983.34	0.083043
2992.98	0.084407
3002.62	0.085365
3012.26	0.086546
3021.91	0.088168
3031.55	0.089123
3041.19	0.090413
3050.83	0.091349
3060.48	0.092043
3070.12	0.092677
3079.76	0.093928
3089.4	0.09498
3099.05	0.096911
3108.69	0.097563
3118.33	0.09819
3127.97	0.099207
3137.61	0.09847
3147.26	0.099032
3156.9	0.099571
3166.54	0.098792
3176.18	0.098875
3185.83	0.099402
3195.47	0.098854
3205.11	0.100683
3214.75	0.101387
3224.4	0.102215
3234.04	0.104096
3243.68	0.105863
3253.32	0.109307
3262.97	0.109531
3272.61	0.107406
3282.25	0.105569
3291.89	0.102954
3301.53	0.099082
3311.18	0.095501
3320.82	0.091919
3330.46	0.090031
3340.1	0.088336
3349.75	0.086025
3359.39	0.084586
3369.03	0.083744
3378.67	0.084857
3388.32	0.08719
3397.96	0.093149
3407.6	0.102841
3417.24	0.108205
3426.89	0.100761
3436.53	0.084661
3446.17	0.075558
3455.81	0.06839
3465.45	0.063673
3475.1	0.059944
3484.74	0.057621
3494.38	0.05425
3504.02	0.052038
3513.67	0.051076
3523.31	0.051695
3532.95	0.055999
3542.59	0.062554
3552.24	0.059958
3561.88	0.048644
3571.52	0.041912
3581.16	0.041387
3590.8	0.039442
3600.45	0.03784
3610.09	0.033518
3619.73	0.026874
3629.37	0.022087
3639.02	0.018996
3648.66	0.016746
3658.3	0.016283
3667.94	0.014123
3677.59	0.013409
3687.23	0.014479
3696.87	0.013956
3706.51	0.014087
3716.16	0.013116
3725.8	0.013006
3735.44	0.01335
3745.08	0.014119
3754.72	0.012575
3764.37	0.012576
3774.01	0.013025
3783.65	0.011978
3793.29	0.013283
3802.94	0.013628
3812.58	0.012486
3822.22	0.013454
3831.86	0.012487
3841.51	0.014043
3851.15	0.013838
3860.79	0.013522
3870.43	0.013073
3880.07	0.013449
3889.72	0.014107
3899.36	0.014207
3909	0.013231
3918.64	0.013652
3928.29	0.01444
3937.93	0.013937
3947.57	0.01295
3957.21	0.014042
3966.86	0.01411
3976.5	0.014628
3986.14	0.013465
3995.78	0.01446
