Measurement: Infrared, Infrared Data RAW
Mineral: Phenakite
Rruff sample: R040132
Ideal chemistry: Be_2_SiO_4_
Locality: Krager√∏, Telemark, Norway
Source: University of Arizona Mineral Museum
Description: Colorless fragments
Measured chemistry: Be_2.02_Si_0.99_O_4_
x	intensity
399.193	0.104645
408.835	0.127683
418.477	0.156302
428.12	0.11809
437.762	0.042446
447.404	0.044809
457.047	0.067544
466.689	0.083682
476.331	0.089724
485.974	0.097646
495.616	0.102838
505.258	0.109286
514.901	0.11685
524.543	0.119473
534.185	0.126992
543.828	0.13166
553.47	0.139724
563.112	0.146812
572.755	0.158844
582.397	0.162935
592.039	0.176242
601.682	0.075329
611.324	0.12374
620.966	0.148682
630.609	0.163965
640.251	0.168242
649.893	0.165193
659.536	0.18075
669.178	0.187249
678.82	0.188418
688.463	0.188589
698.105	0.176322
707.747	0.185332
717.39	0.188491
727.032	0.170681
736.674	0.163308
746.317	0.147781
755.959	0.1168
765.601	0.125739
775.244	0.168215
784.886	0.126757
794.528	0.099856
804.171	0.068903
813.813	0.064061
823.455	0.054415
833.098	0.039487
842.74	0.033668
852.382	0.049593
862.025	0.0835
871.667	0.119575
881.309	0.159268
890.952	0.191253
900.594	0.195075
910.236	0.164312
919.879	0.14093
929.521	0.191491
939.163	0.196564
948.806	0.17217
958.448	0.143313
968.09	0.138326
977.733	0.155355
987.375	0.138321
997.017	0.124612
1006.66	0.113386
1016.3	0.100904
1025.94	0.092787
1035.59	0.082412
1045.23	0.072405
1054.87	0.062987
1064.51	0.054592
1074.16	0.045225
1083.8	0.035721
1093.44	0.027392
1103.08	0.021188
1112.72	0.017937
1122.37	0.01603
1132.01	0.0149
1141.65	0.014106
1151.3	0.013124
1160.94	0.013284
1170.58	0.012796
1180.22	0.011784
1189.86	0.010812
1199.51	0.010259
1209.15	0.009354
1218.79	0.008885
1228.43	0.008438
1238.08	0.008325
1247.72	0.008342
1257.36	0.007957
1267	0.008038
1276.64	0.007883
1286.29	0.007811
1295.93	0.008066
1305.57	0.008054
1315.21	0.008167
1324.86	0.008574
1334.5	0.009551
1344.14	0.009845
1353.78	0.010523
1363.43	0.010825
1373.07	0.01154
1382.71	0.012351
1392.35	0.013223
1401.99	0.015327
1411.64	0.018088
1421.28	0.020003
1430.92	0.022217
1440.57	0.023903
1450.21	0.024542
1459.85	0.023896
1469.49	0.022531
1479.13	0.020359
1488.78	0.01811
1498.42	0.015529
1508.06	0.013267
1517.7	0.011673
1527.35	0.010206
1536.99	0.00972
1546.63	0.009112
1556.27	0.009202
1565.91	0.008967
1575.56	0.009473
1585.2	0.009661
1594.84	0.009706
1604.48	0.009552
1614.13	0.009584
1623.77	0.009053
1633.41	0.008891
1643.05	0.008915
1652.7	0.008995
1662.34	0.008876
1671.98	0.009062
1681.62	0.009028
1691.27	0.009191
1700.91	0.010173
1710.55	0.009845
1720.19	0.010474
1729.84	0.011073
1739.48	0.011333
1749.12	0.010157
1758.76	0.009361
1768.4	0.009232
1778.05	0.009235
1787.69	0.009502
1797.33	0.009197
1806.97	0.009564
1816.62	0.00961
1826.26	0.009497
1835.9	0.009715
1845.54	0.009926
1855.18	0.009627
1864.83	0.008808
1874.47	0.008821
1884.11	0.009406
1893.75	0.008743
1903.4	0.009144
1913.04	0.008957
1922.68	0.008292
1932.32	0.008465
1941.97	0.007008
1951.61	0.005647
1961.25	0.006132
1970.89	0.006229
1980.54	0.008253
1990.18	0.006838
1999.82	0.00723
2009.46	0.006355
2019.11	0.006532
2028.75	0.00743
2038.39	0.007613
2048.03	0.009619
2057.67	0.009699
2067.32	0.010034
2076.96	0.010146
2086.6	0.010817
2096.24	0.009853
2105.89	0.010279
2115.53	0.010395
2125.17	0.010076
2134.81	0.009375
2144.45	0.009794
2154.1	0.007979
2163.74	0.011501
2173.38	0.010325
2183.02	0.01036
2192.67	0.011724
2202.31	0.012864
2211.95	0.013283
2221.59	0.010192
2231.24	0.01174
2240.88	0.01306
2250.52	0.013466
2260.16	0.013087
2269.8	0.013983
2279.45	0.014682
2289.09	0.014233
2298.73	0.014683
2308.38	0.014014
2318.02	0.016594
2327.66	0.01571
2337.3	0.016036
2346.94	0.014897
2356.59	0.016257
2366.23	0.015729
2375.87	0.015663
2385.51	0.015217
2395.16	0.015466
2404.8	0.015748
2414.44	0.014516
2424.08	0.015279
2433.72	0.015644
2443.37	0.015288
2453.01	0.015496
2462.65	0.01478
2472.29	0.015481
2481.94	0.015086
2491.58	0.015293
2501.22	0.014883
2510.86	0.015902
2520.51	0.015521
2530.15	0.01606
2539.79	0.015324
2549.43	0.016495
2559.07	0.016107
2568.72	0.016521
2578.36	0.016179
2588	0.01647
2597.64	0.017123
2607.29	0.01649
2616.93	0.016712
2626.57	0.017088
2636.21	0.017318
2645.86	0.01671
2655.5	0.017315
2665.14	0.016572
2674.78	0.016336
2684.43	0.016394
2694.07	0.01571
2703.71	0.01684
2713.35	0.016834
2722.99	0.017122
2732.64	0.016991
2742.28	0.017565
2751.92	0.017342
2761.56	0.017791
2771.21	0.017595
2780.85	0.017647
2790.49	0.017947
2800.13	0.017951
2809.78	0.018165
2819.42	0.018427
2829.06	0.018545
2838.7	0.019188
2848.34	0.017558
2857.99	0.019095
2867.63	0.019218
2877.27	0.020141
2886.91	0.019631
2896.56	0.020191
2906.2	0.018605
2915.84	0.019121
2925.48	0.018677
2935.13	0.021119
2944.77	0.019486
2954.41	0.021089
2964.05	0.022591
2973.7	0.020041
2983.34	0.0199
2992.98	0.019615
3002.62	0.019776
3012.26	0.018794
3021.91	0.019397
3031.55	0.019595
3041.19	0.019477
3050.83	0.020137
3060.48	0.020709
3070.12	0.019671
3079.76	0.020197
3089.4	0.02088
3099.05	0.020734
3108.69	0.020275
3118.33	0.02073
3127.97	0.019613
3137.61	0.019905
3147.26	0.020387
3156.9	0.020456
3166.54	0.021777
3176.18	0.020721
3185.83	0.02087
3195.47	0.020659
3205.11	0.020559
3214.75	0.020166
3224.4	0.020429
3234.04	0.021443
3243.68	0.020851
3253.32	0.020547
3262.97	0.021079
3272.61	0.020556
3282.25	0.019879
3291.89	0.020738
3301.53	0.019511
3311.18	0.020828
3320.82	0.019568
3330.46	0.020645
3340.1	0.021292
3349.75	0.020294
3359.39	0.02031
3369.03	0.020507
3378.67	0.019249
3388.32	0.020989
3397.96	0.020553
3407.6	0.021966
3417.24	0.022177
3426.89	0.023212
3436.53	0.021857
3446.17	0.021692
3455.81	0.021479
3465.45	0.021593
3475.1	0.020482
3484.74	0.018133
3494.38	0.018724
3504.02	0.019498
3513.67	0.019602
3523.31	0.019423
3532.95	0.018381
3542.59	0.018698
3552.24	0.020243
3561.88	0.017629
3571.52	0.018451
3581.16	0.018063
3590.8	0.017932
3600.45	0.018177
3610.09	0.018311
3619.73	0.01832
3629.37	0.018433
3639.02	0.018251
3648.66	0.018007
3658.3	0.017008
3667.94	0.01724
3677.59	0.016595
3687.23	0.017283
3696.87	0.016512
3706.51	0.018635
3716.16	0.018266
3725.8	0.018579
3735.44	0.020748
3745.08	0.017752
3754.72	0.017053
3764.37	0.017875
3774.01	0.020774
3783.65	0.018905
3793.29	0.018058
3802.94	0.020866
3812.58	0.02006
3822.22	0.020595
3831.86	0.020411
3841.51	0.020396
3851.15	0.02097
3860.79	0.020845
3870.43	0.021078
3880.07	0.020599
3889.72	0.020282
3899.36	0.02042
3909	0.020916
3918.64	0.022053
3928.29	0.022883
3937.93	0.022336
3947.57	0.021893
3957.21	0.020761
3966.86	0.021935
3976.5	0.021558
3986.14	0.020938
3995.78	0.021511
