Measurement: Infrared, Infrared Data RAW
Mineral: Pseudomalachite
Rruff sample: R040175
Ideal chemistry: Cu^2+^_5_(P^5+^O_4_)_2_(OH)_4_
Locality: West Bogan mine, Tottenham, Australia
Source: University of Arizona Mineral Museum
Description: Green massive in a botryoidal shape
Measured chemistry: Cu_5.00_(P_1.00_O_4_)_2_(OH_.98_F_.02_)_4_
x	intensity
399.193	0.12155
408.835	0.16103
418.477	0.176007
428.12	0.140968
437.762	0.18815
447.404	0.176826
457.047	0.13778
466.689	0.130971
476.331	0.156145
485.974	0.133895
495.616	0.140589
505.258	0.158034
514.901	0.157632
524.543	0.165271
534.185	0.123502
543.828	0.15572
553.47	0.154102
563.112	0.115837
572.755	0.149251
582.397	0.204895
592.039	0.258623
601.682	0.283804
611.324	0.241546
620.966	0.165814
630.609	0.093721
640.251	0.053565
649.893	0.042134
659.536	0.040331
669.178	0.043004
678.82	0.046887
688.463	0.053746
698.105	0.063879
707.747	0.077189
717.39	0.096983
727.032	0.126816
736.674	0.169511
746.317	0.220732
755.959	0.23739
765.601	0.197031
775.244	0.15981
784.886	0.15848
794.528	0.193846
804.171	0.216545
813.813	0.204757
823.455	0.173569
833.098	0.134113
842.74	0.111793
852.382	0.107453
862.025	0.115608
871.667	0.1328
881.309	0.154002
890.952	0.151326
900.594	0.129487
910.236	0.122921
919.879	0.139836
929.521	0.177375
939.163	0.233791
948.806	0.277575
958.448	0.249311
968.09	0.262192
977.733	0.340519
987.375	0.379988
997.017	0.368933
1006.66	0.318567
1016.3	0.275479
1025.94	0.246629
1035.59	0.222659
1045.23	0.193174
1054.87	0.148293
1064.51	0.106115
1074.16	0.114181
1083.8	0.187507
1093.44	0.243308
1103.08	0.186254
1112.72	0.124898
1122.37	0.073491
1132.01	0.038887
1141.65	0.02415
1151.3	0.017956
1160.94	0.015379
1170.58	0.013601
1180.22	0.012477
1189.86	0.011486
1199.51	0.010577
1209.15	0.009838
1218.79	0.009046
1228.43	0.008631
1238.08	0.008509
1247.72	0.008573
1257.36	0.008595
1267	0.009278
1276.64	0.010641
1286.29	0.012498
1295.93	0.015985
1305.57	0.021626
1315.21	0.027855
1324.86	0.028759
1334.5	0.024856
1344.14	0.021823
1353.78	0.020322
1363.43	0.020199
1373.07	0.022714
1382.71	0.023501
1392.35	0.022474
1401.99	0.020585
1411.64	0.018835
1421.28	0.018774
1430.92	0.018351
1440.57	0.017875
1450.21	0.019048
1459.85	0.022223
1469.49	0.025489
1479.13	0.027993
1488.78	0.031206
1498.42	0.034277
1508.06	0.036426
1517.7	0.032295
1527.35	0.025631
1536.99	0.02111
1546.63	0.018225
1556.27	0.017431
1565.91	0.016278
1575.56	0.01667
1585.2	0.016247
1594.84	0.016578
1604.48	0.016786
1614.13	0.017112
1623.77	0.017575
1633.41	0.017806
1643.05	0.017341
1652.7	0.018302
1662.34	0.01662
1671.98	0.01604
1681.62	0.015683
1691.27	0.014982
1700.91	0.015732
1710.55	0.014765
1720.19	0.014593
1729.84	0.014047
1739.48	0.01437
1749.12	0.014347
1758.76	0.014271
1768.4	0.014807
1778.05	0.014766
1787.69	0.015315
1797.33	0.015877
1806.97	0.01584
1816.62	0.015922
1826.26	0.01613
1835.9	0.016318
1845.54	0.016734
1855.18	0.016514
1864.83	0.015877
1874.47	0.01637
1884.11	0.016211
1893.75	0.017522
1903.4	0.016858
1913.04	0.016744
1922.68	0.016872
1932.32	0.015814
1941.97	0.016411
1951.61	0.016001
1961.25	0.015009
1970.89	0.014486
1980.54	0.016741
1990.18	0.015227
1999.82	0.014945
2009.46	0.015508
2019.11	0.016185
2028.75	0.016863
2038.39	0.018326
2048.03	0.01964
2057.67	0.019399
2067.32	0.018808
2076.96	0.019358
2086.6	0.018694
2096.24	0.01839
2105.89	0.019853
2115.53	0.019356
2125.17	0.01886
2134.81	0.018224
2144.45	0.017061
2154.1	0.017419
2163.74	0.020386
2173.38	0.017491
2183.02	0.018103
2192.67	0.017861
2202.31	0.019201
2211.95	0.019155
2221.59	0.020923
2231.24	0.022105
2240.88	0.023681
2250.52	0.023493
2260.16	0.024938
2269.8	0.025495
2279.45	0.025814
2289.09	0.025671
2298.73	0.02569
2308.38	0.025774
2318.02	0.027166
2327.66	0.026983
2337.3	0.02798
2346.94	0.025946
2356.59	0.028184
2366.23	0.028467
2375.87	0.025759
2385.51	0.025142
2395.16	0.025191
2404.8	0.025267
2414.44	0.025796
2424.08	0.026514
2433.72	0.025802
2443.37	0.02731
2453.01	0.027408
2462.65	0.026894
2472.29	0.027433
2481.94	0.027381
2491.58	0.027536
2501.22	0.028381
2510.86	0.028575
2520.51	0.028956
2530.15	0.028721
2539.79	0.029659
2549.43	0.030013
2559.07	0.03079
2568.72	0.030933
2578.36	0.031914
2588	0.030894
2597.64	0.031171
2607.29	0.031634
2616.93	0.031618
2626.57	0.032147
2636.21	0.031502
2645.86	0.032219
2655.5	0.032686
2665.14	0.032428
2674.78	0.032478
2684.43	0.032723
2694.07	0.033278
2703.71	0.033669
2713.35	0.034105
2722.99	0.034237
2732.64	0.034606
2742.28	0.035395
2751.92	0.035759
2761.56	0.035854
2771.21	0.03637
2780.85	0.03711
2790.49	0.037548
2800.13	0.038266
2809.78	0.038529
2819.42	0.039137
2829.06	0.039665
2838.7	0.04023
2848.34	0.040666
2857.99	0.041221
2867.63	0.041842
2877.27	0.042596
2886.91	0.042581
2896.56	0.04335
2906.2	0.044329
2915.84	0.044752
2925.48	0.045551
2935.13	0.046476
2944.77	0.046396
2954.41	0.047312
2964.05	0.048796
2973.7	0.048008
2983.34	0.048013
2992.98	0.048378
3002.62	0.049703
3012.26	0.049879
3021.91	0.050554
3031.55	0.051317
3041.19	0.052462
3050.83	0.052682
3060.48	0.053786
3070.12	0.05413
3079.76	0.054725
3089.4	0.055679
3099.05	0.057689
3108.69	0.05806
3118.33	0.059157
3127.97	0.060223
3137.61	0.061205
3147.26	0.061872
3156.9	0.063151
3166.54	0.064464
3176.18	0.065407
3185.83	0.066316
3195.47	0.067501
3205.11	0.069221
3214.75	0.070951
3224.4	0.072003
3234.04	0.072706
3243.68	0.074924
3253.32	0.076874
3262.97	0.078404
3272.61	0.080073
3282.25	0.082468
3291.89	0.085555
3301.53	0.089642
3311.18	0.094029
3320.82	0.096544
3330.46	0.101497
3340.1	0.106692
3349.75	0.112947
3359.39	0.122592
3369.03	0.134999
3378.67	0.147488
3388.32	0.156375
3397.96	0.154078
3407.6	0.144724
3417.24	0.143763
3426.89	0.151591
3436.53	0.159403
3446.17	0.150724
3455.81	0.119165
3465.45	0.091646
3475.1	0.073979
3484.74	0.065283
3494.38	0.058491
3504.02	0.055549
3513.67	0.05336
3523.31	0.051176
3532.95	0.047499
3542.59	0.046549
3552.24	0.044402
3561.88	0.043327
3571.52	0.041337
3581.16	0.039813
3590.8	0.038584
3600.45	0.038023
3610.09	0.036766
3619.73	0.038041
3629.37	0.036536
3639.02	0.035342
3648.66	0.035305
3658.3	0.034558
3667.94	0.034581
3677.59	0.035323
3687.23	0.035247
3696.87	0.035893
3706.51	0.036774
3716.16	0.036433
3725.8	0.035754
3735.44	0.037545
3745.08	0.038152
3754.72	0.036729
3764.37	0.036606
3774.01	0.035326
3783.65	0.036378
3793.29	0.037146
3802.94	0.037718
3812.58	0.037145
3822.22	0.037914
3831.86	0.037425
3841.51	0.037456
3851.15	0.039891
3860.79	0.038164
3870.43	0.038585
3880.07	0.03956
3889.72	0.03875
3899.36	0.039673
3909	0.037809
3918.64	0.039378
3928.29	0.03924
3937.93	0.038143
3947.57	0.038634
3957.21	0.039968
3966.86	0.040303
3976.5	0.040044
3986.14	0.039406
3995.78	0.039881
