Measurement: Infrared, Infrared Data RAW
Mineral: Shortite
Rruff sample: R040184
Ideal chemistry: Na_2_Ca_2_(CO_3_)_3_
Locality: Green River, Wyoming, USA
Source: University of Arizona Mineral Museum
Description: Colorless single crystal fragments
Measured chemistry: (Na_1.47_Ca_0.27_[box]_0.26_)_Î£=2_Ca_2.00_(CO_3_)_3_
x	intensity
399.193	0.012021
408.835	0.016785
418.477	0.009426
428.12	0.008158
437.762	0.009505
447.404	0.007442
457.047	0.008038
466.689	0.007825
476.331	0.007455
485.974	0.00664
495.616	0.006875
505.258	0.006023
514.901	0.006458
524.543	0.00637
534.185	0.006228
543.828	0.00676
553.47	0.007224
563.112	0.006983
572.755	0.006636
582.397	0.006835
592.039	0.007182
601.682	0.006881
611.324	0.00648
620.966	0.007262
630.609	0.007111
640.251	0.007141
649.893	0.007399
659.536	0.008209
669.178	0.008238
678.82	0.008659
688.463	0.012457
698.105	0.014866
707.747	0.02454
717.39	0.043699
727.032	0.018873
736.674	0.009194
746.317	0.006992
755.959	0.007194
765.601	0.007851
775.244	0.00825
784.886	0.008953
794.528	0.009381
804.171	0.010202
813.813	0.011119
823.455	0.012985
833.098	0.015881
842.74	0.030058
852.382	0.073379
862.025	0.123949
871.667	0.095798
881.309	0.008025
890.952	0.007504
900.594	0.00767
910.236	0.008013
919.879	0.008603
929.521	0.009227
939.163	0.009915
948.806	0.010657
958.448	0.011604
968.09	0.012052
977.733	0.013111
987.375	0.014056
997.017	0.01466
1006.66	0.01593
1016.3	0.016663
1025.94	0.017602
1035.59	0.01849
1045.23	0.019676
1054.87	0.020308
1064.51	0.023603
1074.16	0.025039
1083.8	0.022921
1093.44	0.022205
1103.08	0.0191
1112.72	0.019456
1122.37	0.019167
1132.01	0.019539
1141.65	0.019986
1151.3	0.020546
1160.94	0.021033
1170.58	0.021753
1180.22	0.022669
1189.86	0.023663
1199.51	0.02495
1209.15	0.026447
1218.79	0.028124
1228.43	0.030693
1238.08	0.033369
1247.72	0.036635
1257.36	0.039912
1267	0.043802
1276.64	0.048358
1286.29	0.053499
1295.93	0.059407
1305.57	0.066699
1315.21	0.075616
1324.86	0.086899
1334.5	0.100533
1344.14	0.119084
1353.78	0.144069
1363.43	0.173904
1373.07	0.212646
1382.71	0.268151
1392.35	0.329381
1401.99	0.401891
1411.64	0.347201
1421.28	0.247432
1430.92	0.308002
1440.57	0.346414
1450.21	0.359665
1459.85	0.356352
1469.49	0.355308
1479.13	0.318877
1488.78	0.250743
1498.42	0.187852
1508.06	0.131304
1517.7	0.118236
1527.35	0.110394
1536.99	0.096965
1546.63	0.075988
1556.27	0.053576
1565.91	0.033598
1575.56	0.020219
1585.2	0.013875
1594.84	0.011058
1604.48	0.008203
1614.13	0.007054
1623.77	0.006679
1633.41	0.005872
1643.05	0.005022
1652.7	0.005101
1662.34	0.00433
1671.98	0.004318
1681.62	0.004159
1691.27	0.003481
1700.91	0.002908
1710.55	0.002228
1720.19	0.001993
1729.84	0.001351
1739.48	0.001009
1749.12	0.001682
1758.76	0.002784
1768.4	0.004603
1778.05	0.004869
1787.69	0.005276
1797.33	0.005133
1806.97	0.007526
1816.62	0.002295
1826.26	0.001389
1835.9	0.001124
1845.54	0.0015
1855.18	0.001285
1864.83	0.001215
1874.47	0.001355
1884.11	0.001027
1893.75	0.001579
1903.4	0.001678
1913.04	0.001453
1922.68	0.002558
1932.32	0.00081
1941.97	0.00151
1951.61	0.001454
1961.25	0.001283
1970.89	0.00122
1980.54	0.004755
1990.18	0.002837
1999.82	0.00094
2009.46	0.001844
2019.11	0.002034
2028.75	0.001883
2038.39	0.004026
2048.03	0.004649
2057.67	0.001687
2067.32	0.004321
2076.96	0.004844
2086.6	0.003591
2096.24	0.004068
2105.89	0.004311
2115.53	0.006053
2125.17	0.004151
2134.81	0.001805
2144.45	0.003986
2154.1	0.001765
2163.74	0.005516
2173.38	0.004644
2183.02	0.005402
2192.67	0.004109
2202.31	0.004798
2211.95	0.005418
2221.59	0.006449
2231.24	0.004717
2240.88	0.006561
2250.52	0.005173
2260.16	0.005998
2269.8	0.005979
2279.45	0.007309
2289.09	0.006509
2298.73	0.006832
2308.38	0.006214
2318.02	0.006849
2327.66	0.006573
2337.3	0.005931
2346.94	0.005492
2356.59	0.005771
2366.23	0.005855
2375.87	0.005475
2385.51	0.005829
2395.16	0.00628
2404.8	0.00582
2414.44	0.005903
2424.08	0.006386
2433.72	0.006668
2443.37	0.006719
2453.01	0.008385
2462.65	0.008615
2472.29	0.007669
2481.94	0.007053
2491.58	0.00666
2501.22	0.008285
2510.86	0.010552
2520.51	0.008675
2530.15	0.008099
2539.79	0.007719
2549.43	0.009053
2559.07	0.008194
2568.72	0.006831
2578.36	0.00716
2588	0.007535
2597.64	0.006971
2607.29	0.006487
2616.93	0.007628
2626.57	0.006401
2636.21	0.006237
2645.86	0.0057
2655.5	0.005627
2665.14	0.00549
2674.78	0.005171
2684.43	0.005149
2694.07	0.004464
2703.71	0.005312
2713.35	0.00487
2722.99	0.004101
2732.64	0.0045
2742.28	0.003694
2751.92	0.003666
2761.56	0.00317
2771.21	0.00364
2780.85	0.002819
2790.49	0.002825
2800.13	0.001639
2809.78	0.002567
2819.42	0.002601
2829.06	0.003857
2838.7	0.004243
2848.34	0.004286
2857.99	0.004082
2867.63	0.003193
2877.27	0.004424
2886.91	0.00414
2896.56	0.003823
2906.2	0.003784
2915.84	0.003819
2925.48	0.003318
2935.13	0.00348
2944.77	0.003294
2954.41	0.002368
2964.05	0.004261
2973.7	0.004611
2983.34	0.004597
2992.98	0.005207
3002.62	0.004558
3012.26	0.005005
3021.91	0.006008
3031.55	0.005579
3041.19	0.006052
3050.83	0.005574
3060.48	0.006756
3070.12	0.006053
3079.76	0.006744
3089.4	0.0071
3099.05	0.006891
3108.69	0.008738
3118.33	0.007837
3127.97	0.008736
3137.61	0.008991
3147.26	0.009261
3156.9	0.009588
3166.54	0.009289
3176.18	0.008779
3185.83	0.009487
3195.47	0.008756
3205.11	0.009335
3214.75	0.009741
3224.4	0.010538
3234.04	0.010606
3243.68	0.009735
3253.32	0.010278
3262.97	0.01023
3272.61	0.010646
3282.25	0.010285
3291.89	0.010938
3301.53	0.010296
3311.18	0.008667
3320.82	0.009999
3330.46	0.009965
3340.1	0.010653
3349.75	0.009974
3359.39	0.010341
3369.03	0.010556
3378.67	0.010526
3388.32	0.010146
3397.96	0.010291
3407.6	0.010691
3417.24	0.010257
3426.89	0.0118
3436.53	0.012491
3446.17	0.010937
3455.81	0.009686
3465.45	0.012702
3475.1	0.012046
3484.74	0.010301
3494.38	0.010354
3504.02	0.009652
3513.67	0.009736
3523.31	0.009067
3532.95	0.009755
3542.59	0.009522
3552.24	0.010442
3561.88	0.009703
3571.52	0.009054
3581.16	0.00849
3590.8	0.010846
3600.45	0.009618
3610.09	0.008812
3619.73	0.009088
3629.37	0.010551
3639.02	0.008392
3648.66	0.009259
3658.3	0.009202
3667.94	0.00786
3677.59	0.008255
3687.23	0.008963
3696.87	0.010087
3706.51	0.010329
3716.16	0.006992
3725.8	0.011227
3735.44	0.009622
3745.08	0.008422
3754.72	0.01011
3764.37	0.00838
3774.01	0.008595
3783.65	0.009344
3793.29	0.009337
3802.94	0.009188
3812.58	0.010221
3822.22	0.008933
3831.86	0.007749
3841.51	0.010265
3851.15	0.01034
3860.79	0.008596
3870.43	0.008076
3880.07	0.009094
3889.72	0.007963
3899.36	0.009674
3909	0.009373
3918.64	0.008806
3928.29	0.010171
3937.93	0.007926
3947.57	0.008388
3957.21	0.009102
3966.86	0.010342
3976.5	0.008917
3986.14	0.008785
3995.78	0.010027
