Measurement: Infrared, Infrared Data RAW
Mineral: Stellerite
Rruff sample: R040174
Ideal chemistry: Ca_4_(Si_28_Al_8_)O_72_28H_2_O
Locality: unknown
Source: University of Arizona Mineral Museum
Description: Parallel aggregates of thin tabular brown crystals
Measured chemistry: (Ca_3.89_Na_0.06_K_0.05_)_Σ=4_(Si_28.11_Al_7.89_)O_72_·15.18H_2_O; H_2_O estimated by difference
x	intensity
399.193	0.141027
408.835	0.142877
418.477	0.152481
428.12	0.159317
437.762	0.162529
447.404	0.149602
457.047	0.133865
466.689	0.119593
476.331	0.106182
485.974	0.100148
495.616	0.098825
505.258	0.09875
514.901	0.098854
524.543	0.101623
534.185	0.107675
543.828	0.111894
553.47	0.111673
563.112	0.105326
572.755	0.09547
582.397	0.084845
592.039	0.074314
601.682	0.064412
611.324	0.05284
620.966	0.041603
630.609	0.034756
640.251	0.032216
649.893	0.031598
659.536	0.032026
669.178	0.033515
678.82	0.03408
688.463	0.034826
698.105	0.036768
707.747	0.037831
717.39	0.037877
727.032	0.036681
736.674	0.035094
746.317	0.03383
755.959	0.032774
765.601	0.032682
775.244	0.033925
784.886	0.033563
794.528	0.032968
804.171	0.031019
813.813	0.027636
823.455	0.026083
833.098	0.025566
842.74	0.025596
852.382	0.025876
862.025	0.026887
871.667	0.028011
881.309	0.028782
890.952	0.030034
900.594	0.033736
910.236	0.038848
919.879	0.045758
929.521	0.055577
939.163	0.06877
948.806	0.087516
958.448	0.113961
968.09	0.147883
977.733	0.185337
987.375	0.214918
997.017	0.232646
1006.66	0.241557
1016.3	0.244981
1025.94	0.242662
1035.59	0.233738
1045.23	0.218559
1054.87	0.199746
1064.51	0.176535
1074.16	0.147735
1083.8	0.119244
1093.44	0.099764
1103.08	0.088556
1112.72	0.084094
1122.37	0.084824
1132.01	0.087604
1141.65	0.089042
1151.3	0.085103
1160.94	0.07657
1170.58	0.066465
1180.22	0.057958
1189.86	0.049293
1199.51	0.039635
1209.15	0.028254
1218.79	0.019093
1228.43	0.013415
1238.08	0.0102
1247.72	0.008005
1257.36	0.006608
1267	0.00572
1276.64	0.005297
1286.29	0.004801
1295.93	0.004434
1305.57	0.004082
1315.21	0.003845
1324.86	0.003777
1334.5	0.003575
1344.14	0.003547
1353.78	0.003773
1363.43	0.003573
1373.07	0.003591
1382.71	0.003508
1392.35	0.003612
1401.99	0.003734
1411.64	0.003738
1421.28	0.003912
1430.92	0.003904
1440.57	0.003979
1450.21	0.004198
1459.85	0.004299
1469.49	0.003997
1479.13	0.004024
1488.78	0.004341
1498.42	0.004359
1508.06	0.004637
1517.7	0.00445
1527.35	0.004444
1536.99	0.004904
1546.63	0.004916
1556.27	0.005742
1565.91	0.005685
1575.56	0.006787
1585.2	0.007114
1594.84	0.00861
1604.48	0.01141
1614.13	0.01742
1623.77	0.027002
1633.41	0.033493
1643.05	0.031292
1652.7	0.025578
1662.34	0.017992
1671.98	0.013208
1681.62	0.010346
1691.27	0.007524
1700.91	0.006448
1710.55	0.004928
1720.19	0.004192
1729.84	0.003832
1739.48	0.003877
1749.12	0.003685
1758.76	0.00338
1768.4	0.003739
1778.05	0.003463
1787.69	0.003478
1797.33	0.003859
1806.97	0.003437
1816.62	0.003802
1826.26	0.003427
1835.9	0.003776
1845.54	0.003929
1855.18	0.00376
1864.83	0.003196
1874.47	0.003019
1884.11	0.003039
1893.75	0.004053
1903.4	0.003598
1913.04	0.002932
1922.68	0.003238
1932.32	0.002151
1941.97	0.002097
1951.61	0.001975
1961.25	0.001173
1970.89	6e-05
1980.54	0.000969
1990.18	-0.001146
1999.82	-0.000356
2009.46	-0.000924
2019.11	-9.9e-05
2028.75	-0.00107
2038.39	0.000155
2048.03	0.001607
2057.67	0.000998
2067.32	0.000802
2076.96	0.001233
2086.6	0.000666
2096.24	0.000448
2105.89	0.001856
2115.53	0.001176
2125.17	0.000888
2134.81	0.000303
2144.45	0.000383
2154.1	0.001037
2163.74	0.002679
2173.38	0.00369
2183.02	0.004794
2192.67	0.005173
2202.31	0.004119
2211.95	0.004188
2221.59	0.004261
2231.24	0.004035
2240.88	0.004679
2250.52	0.003707
2260.16	0.005229
2269.8	0.004482
2279.45	0.004537
2289.09	0.003734
2298.73	0.004544
2308.38	0.004855
2318.02	0.005755
2327.66	0.006601
2337.3	0.007366
2346.94	0.005074
2356.59	0.00788
2366.23	0.008075
2375.87	0.004654
2385.51	0.003622
2395.16	0.003845
2404.8	0.003697
2414.44	0.004149
2424.08	0.004494
2433.72	0.004182
2443.37	0.005001
2453.01	0.005205
2462.65	0.004594
2472.29	0.004949
2481.94	0.005428
2491.58	0.005614
2501.22	0.005817
2510.86	0.005477
2520.51	0.006117
2530.15	0.005927
2539.79	0.005927
2549.43	0.006811
2559.07	0.006275
2568.72	0.006486
2578.36	0.006496
2588	0.005992
2597.64	0.005433
2607.29	0.006124
2616.93	0.006161
2626.57	0.006283
2636.21	0.005875
2645.86	0.005655
2655.5	0.005696
2665.14	0.005635
2674.78	0.005318
2684.43	0.005832
2694.07	0.005466
2703.71	0.005739
2713.35	0.005686
2722.99	0.005485
2732.64	0.005693
2742.28	0.005925
2751.92	0.00604
2761.56	0.00597
2771.21	0.005999
2780.85	0.006239
2790.49	0.006305
2800.13	0.006658
2809.78	0.006544
2819.42	0.00697
2829.06	0.007178
2838.7	0.007325
2848.34	0.00639
2857.99	0.006943
2867.63	0.007568
2877.27	0.007624
2886.91	0.007541
2896.56	0.007547
2906.2	0.008683
2915.84	0.008407
2925.48	0.00873
2935.13	0.008905
2944.77	0.009263
2954.41	0.009916
2964.05	0.010531
2973.7	0.009187
2983.34	0.009568
2992.98	0.010072
3002.62	0.010435
3012.26	0.010386
3021.91	0.010849
3031.55	0.010701
3041.19	0.011505
3050.83	0.011791
3060.48	0.012425
3070.12	0.01225
3079.76	0.012826
3089.4	0.01373
3099.05	0.014842
3108.69	0.014904
3118.33	0.016023
3127.97	0.016839
3137.61	0.016789
3147.26	0.018184
3156.9	0.018912
3166.54	0.020031
3176.18	0.02064
3185.83	0.021821
3195.47	0.022229
3205.11	0.024774
3214.75	0.025189
3224.4	0.025896
3234.04	0.026336
3243.68	0.026759
3253.32	0.027277
3262.97	0.026869
3272.61	0.026566
3282.25	0.027205
3291.89	0.027207
3301.53	0.028752
3311.18	0.028921
3320.82	0.029463
3330.46	0.030393
3340.1	0.031739
3349.75	0.031522
3359.39	0.031793
3369.03	0.033161
3378.67	0.034427
3388.32	0.034947
3397.96	0.034475
3407.6	0.035306
3417.24	0.035714
3426.89	0.035457
3436.53	0.034697
3446.17	0.035955
3455.81	0.035417
3465.45	0.036345
3475.1	0.034744
3484.74	0.036178
3494.38	0.035602
3504.02	0.035742
3513.67	0.036244
3523.31	0.036543
3532.95	0.035046
3542.59	0.035487
3552.24	0.034559
3561.88	0.033527
3571.52	0.033558
3581.16	0.033599
3590.8	0.032447
3600.45	0.032497
3610.09	0.031404
3619.73	0.028173
3629.37	0.02459
3639.02	0.019335
3648.66	0.015131
3658.3	0.011965
3667.94	0.008813
3677.59	0.00809
3687.23	0.006756
3696.87	0.007165
3706.51	0.006104
3716.16	0.005154
3725.8	0.005086
3735.44	0.005971
3745.08	0.005981
3754.72	0.004668
3764.37	0.003929
3774.01	0.004169
3783.65	0.003795
3793.29	0.005205
3802.94	0.004339
3812.58	0.004039
3822.22	0.004907
3831.86	0.004535
3841.51	0.00467
3851.15	0.00511
3860.79	0.004856
3870.43	0.004057
3880.07	0.005257
3889.72	0.003663
3899.36	0.005162
3909	0.00313
3918.64	0.003588
3928.29	0.00414
3937.93	0.003563
3947.57	0.00245
3957.21	0.00342
3966.86	0.004591
3976.5	0.004315
3986.14	0.003284
3995.78	0.004763
