Measurement: Infrared, Infrared Data RAW
Mineral: Thenardite
Rruff sample: R040183
Ideal chemistry: Na_2_S^6+^O_4_
Locality: Camp Verde, Yavapai County, Arizona, USA
Source: University of Arizona Mineral Museum
Description: Tan colored fragment
Measured chemistry: Na_2.00_S_1.00_O_4_
x	intensity
399.193	0.00677
408.835	0.009413
418.477	0.003673
428.12	-0.000978
437.762	0.003357
447.404	0.001652
457.047	0.002033
466.689	0.00353
476.331	0.004104
485.974	0.002872
495.616	0.003556
505.258	0.003514
514.901	0.003811
524.543	0.003808
534.185	0.004685
543.828	0.005317
553.47	0.00671
563.112	0.008721
572.755	0.01153
582.397	0.01836
592.039	0.036399
601.682	0.114036
611.324	0.306837
620.966	0.154679
630.609	0.077487
640.251	0.117132
649.893	0.030899
659.536	0.008549
669.178	0.005367
678.82	0.003877
688.463	0.003643
698.105	0.003628
707.747	0.003616
717.39	0.003941
727.032	0.00406
736.674	0.003999
746.317	0.004405
755.959	0.00438
765.601	0.004878
775.244	0.004948
784.886	0.00535
794.528	0.00517
804.171	0.005301
813.813	0.005702
823.455	0.005623
833.098	0.005771
842.74	0.005834
852.382	0.006307
862.025	0.006783
871.667	0.007498
881.309	0.008031
890.952	0.008428
900.594	0.00862
910.236	0.009042
919.879	0.010225
929.521	0.011255
939.163	0.012438
948.806	0.014087
958.448	0.016252
968.09	0.018778
977.733	0.022487
987.375	0.025954
997.017	0.030872
1006.66	0.037468
1016.3	0.046172
1025.94	0.058768
1035.59	0.078601
1045.23	0.11131
1054.87	0.164487
1064.51	0.247564
1074.16	0.360432
1083.8	0.490773
1093.44	0.606172
1103.08	0.60786
1112.72	0.554646
1122.37	0.462771
1132.01	0.343515
1141.65	0.260788
1151.3	0.20665
1160.94	0.151194
1170.58	0.100829
1180.22	0.05878
1189.86	0.029351
1199.51	0.015861
1209.15	0.007637
1218.79	0.005633
1228.43	0.004937
1238.08	0.004752
1247.72	0.004031
1257.36	0.003256
1267	0.002962
1276.64	0.002589
1286.29	0.001738
1295.93	0.00191
1305.57	0.001419
1315.21	0.001232
1324.86	0.001315
1334.5	0.001215
1344.14	0.001183
1353.78	0.001063
1363.43	0.000981
1373.07	0.000815
1382.71	0.000717
1392.35	0.001105
1401.99	0.000871
1411.64	0.000997
1421.28	0.001259
1430.92	0.001399
1440.57	0.001089
1450.21	0.001322
1459.85	0.001423
1469.49	0.001503
1479.13	0.001187
1488.78	0.001216
1498.42	0.00113
1508.06	0.001394
1517.7	0.001401
1527.35	0.001447
1536.99	0.0015
1546.63	0.00167
1556.27	0.002093
1565.91	0.002384
1575.56	0.002633
1585.2	0.002401
1594.84	0.002639
1604.48	0.00306
1614.13	0.002396
1623.77	0.002717
1633.41	0.002621
1643.05	0.002378
1652.7	0.002303
1662.34	0.002136
1671.98	0.002418
1681.62	0.002131
1691.27	0.002275
1700.91	0.002471
1710.55	0.002121
1720.19	0.002475
1729.84	0.00271
1739.48	0.002239
1749.12	0.002452
1758.76	0.002434
1768.4	0.002344
1778.05	0.002282
1787.69	0.002864
1797.33	0.002385
1806.97	0.002016
1816.62	0.002224
1826.26	0.002083
1835.9	0.002356
1845.54	0.00254
1855.18	0.002486
1864.83	0.002097
1874.47	0.00243
1884.11	0.002618
1893.75	0.001797
1903.4	0.001913
1913.04	0.002646
1922.68	0.00306
1932.32	0.001787
1941.97	0.00167
1951.61	0.002601
1961.25	0.002287
1970.89	0.001316
1980.54	0.003957
1990.18	0.00271
1999.82	0.002274
2009.46	0.000769
2019.11	0.002411
2028.75	0.001057
2038.39	0.002238
2048.03	0.003041
2057.67	0.000296
2067.32	0.001517
2076.96	0.00209
2086.6	0.003175
2096.24	0.006926
2105.89	0.004622
2115.53	0.004262
2125.17	0.001846
2134.81	-0.002865
2144.45	-0.004172
2154.1	-0.00885
2163.74	-0.009395
2173.38	-0.006459
2183.02	-0.005151
2192.67	-0.006358
2202.31	-0.005789
2211.95	-0.005747
2221.59	-0.004717
2231.24	-0.00305
2240.88	-0.002066
2250.52	-0.002528
2260.16	-0.00058
2269.8	0.000869
2279.45	0.001468
2289.09	0.002999
2298.73	0.003781
2308.38	0.004049
2318.02	0.003927
2327.66	0.004356
2337.3	0.003384
2346.94	0.003763
2356.59	0.004052
2366.23	0.004142
2375.87	0.004085
2385.51	0.00435
2395.16	0.00475
2404.8	0.005069
2414.44	0.004792
2424.08	0.005033
2433.72	0.005683
2443.37	0.005283
2453.01	0.004999
2462.65	0.006222
2472.29	0.005926
2481.94	0.005298
2491.58	0.005327
2501.22	0.005195
2510.86	0.006327
2520.51	0.005339
2530.15	0.00542
2539.79	0.005795
2549.43	0.00669
2559.07	0.006985
2568.72	0.005744
2578.36	0.006225
2588	0.006198
2597.64	0.00624
2607.29	0.006744
2616.93	0.007311
2626.57	0.005899
2636.21	0.007306
2645.86	0.006816
2655.5	0.006619
2665.14	0.006899
2674.78	0.006449
2684.43	0.006681
2694.07	0.006424
2703.71	0.00667
2713.35	0.006436
2722.99	0.005712
2732.64	0.006382
2742.28	0.006286
2751.92	0.006395
2761.56	0.005986
2771.21	0.006508
2780.85	0.006074
2790.49	0.00658
2800.13	0.006344
2809.78	0.006546
2819.42	0.006715
2829.06	0.006459
2838.7	0.006969
2848.34	0.007494
2857.99	0.007465
2867.63	0.006679
2877.27	0.007209
2886.91	0.007351
2896.56	0.006759
2906.2	0.008271
2915.84	0.006963
2925.48	0.007174
2935.13	0.006495
2944.77	0.006634
2954.41	0.007033
2964.05	0.00822
2973.7	0.007664
2983.34	0.006814
2992.98	0.007101
3002.62	0.007107
3012.26	0.006924
3021.91	0.006665
3031.55	0.007593
3041.19	0.007094
3050.83	0.006656
3060.48	0.007754
3070.12	0.007346
3079.76	0.008419
3089.4	0.008496
3099.05	0.007913
3108.69	0.008773
3118.33	0.008374
3127.97	0.008167
3137.61	0.008087
3147.26	0.008263
3156.9	0.00903
3166.54	0.009581
3176.18	0.007582
3185.83	0.008434
3195.47	0.00827
3205.11	0.007154
3214.75	0.008733
3224.4	0.009469
3234.04	0.008819
3243.68	0.009507
3253.32	0.009707
3262.97	0.009643
3272.61	0.009087
3282.25	0.008942
3291.89	0.009682
3301.53	0.009301
3311.18	0.007501
3320.82	0.009134
3330.46	0.009356
3340.1	0.009289
3349.75	0.008779
3359.39	0.009074
3369.03	0.009727
3378.67	0.009716
3388.32	0.009821
3397.96	0.009753
3407.6	0.009674
3417.24	0.009148
3426.89	0.00986
3436.53	0.011867
3446.17	0.009068
3455.81	0.009865
3465.45	0.01172
3475.1	0.009994
3484.74	0.009125
3494.38	0.010025
3504.02	0.008903
3513.67	0.009306
3523.31	0.009769
3532.95	0.009966
3542.59	0.009539
3552.24	0.010324
3561.88	0.010168
3571.52	0.00974
3581.16	0.007804
3590.8	0.009734
3600.45	0.009998
3610.09	0.009121
3619.73	0.007947
3629.37	0.010791
3639.02	0.007803
3648.66	0.00981
3658.3	0.010631
3667.94	0.008426
3677.59	0.008085
3687.23	0.010527
3696.87	0.010146
3706.51	0.011396
3716.16	0.008671
3725.8	0.012142
3735.44	0.01037
3745.08	0.010111
3754.72	0.010266
3764.37	0.009002
3774.01	0.009693
3783.65	0.010811
3793.29	0.010321
3802.94	0.009451
3812.58	0.012019
3822.22	0.010378
3831.86	0.009643
3841.51	0.011042
3851.15	0.011391
3860.79	0.008678
3870.43	0.010091
3880.07	0.009996
3889.72	0.009202
3899.36	0.010641
3909	0.010621
3918.64	0.009181
3928.29	0.01099
3937.93	0.007981
3947.57	0.01042
3957.21	0.010556
3966.86	0.011715
3976.5	0.011036
3986.14	0.009185
3995.78	0.012267
