Measurement: Infrared, Infrared Data RAW
Mineral: Vivianite
Rruff sample: R040185
Ideal chemistry: Fe^2+^_3_(PO_4_)_2_8H_2_O
Locality: Siglo XX mine, Llallagua, Bustillos, Potosi, Bolivia
Source: University of Arizona Mineral Museum
Description: Green acicular single crystal
Measured chemistry: (Fe_1.00_Mn_0.01_)_3_(P_0.97_Si_0.03_O_3.94_F_0.07_)_2_Â·8H_2_O
x	intensity
399.193	0.095574
408.835	0.101556
418.477	0.102408
428.12	0.106749
437.762	0.108883
447.404	0.111892
457.047	0.114331
466.689	0.116599
476.331	0.11719
485.974	0.117551
495.616	0.12053
505.258	0.124743
514.901	0.132973
524.543	0.14441
534.185	0.156101
543.828	0.149472
553.47	0.140477
563.112	0.131738
572.755	0.124232
582.397	0.113047
592.039	0.0978
601.682	0.085529
611.324	0.079022
620.966	0.074773
630.609	0.071519
640.251	0.068975
649.893	0.067105
659.536	0.06628
669.178	0.065786
678.82	0.065349
688.463	0.064769
698.105	0.064505
707.747	0.064744
717.39	0.065436
727.032	0.067018
736.674	0.068547
746.317	0.07104
755.959	0.073635
765.601	0.07621
775.244	0.07875
784.886	0.080378
794.528	0.081009
804.171	0.080185
813.813	0.078227
823.455	0.075246
833.098	0.071704
842.74	0.068164
852.382	0.065256
862.025	0.064409
871.667	0.065596
881.309	0.068828
890.952	0.074083
900.594	0.081922
910.236	0.092099
919.879	0.107709
929.521	0.13294
939.163	0.165192
948.806	0.185664
958.448	0.197549
968.09	0.221892
977.733	0.220079
987.375	0.211649
997.017	0.209216
1006.66	0.207997
1016.3	0.199459
1025.94	0.19239
1035.59	0.18865
1045.23	0.181533
1054.87	0.161296
1064.51	0.135394
1074.16	0.112768
1083.8	0.091877
1093.44	0.077353
1103.08	0.067749
1112.72	0.059817
1122.37	0.052745
1132.01	0.046535
1141.65	0.040356
1151.3	0.034465
1160.94	0.028986
1170.58	0.024107
1180.22	0.020098
1189.86	0.017275
1199.51	0.01538
1209.15	0.014085
1218.79	0.013243
1228.43	0.012643
1238.08	0.012172
1247.72	0.012029
1257.36	0.011755
1267	0.011826
1276.64	0.011948
1286.29	0.011971
1295.93	0.012072
1305.57	0.011988
1315.21	0.012115
1324.86	0.012111
1334.5	0.012365
1344.14	0.012596
1353.78	0.01314
1363.43	0.013177
1373.07	0.013628
1382.71	0.014099
1392.35	0.014625
1401.99	0.015116
1411.64	0.015814
1421.28	0.016643
1430.92	0.017205
1440.57	0.017854
1450.21	0.018254
1459.85	0.018177
1469.49	0.017821
1479.13	0.017912
1488.78	0.018477
1498.42	0.01909
1508.06	0.020357
1517.7	0.021465
1527.35	0.022951
1536.99	0.024831
1546.63	0.026678
1556.27	0.028628
1565.91	0.030131
1575.56	0.03154
1585.2	0.032308
1594.84	0.033441
1604.48	0.034909
1614.13	0.036166
1623.77	0.037093
1633.41	0.036364
1643.05	0.034757
1652.7	0.032952
1662.34	0.030498
1671.98	0.027871
1681.62	0.024779
1691.27	0.021491
1700.91	0.019468
1710.55	0.017876
1720.19	0.016828
1729.84	0.015567
1739.48	0.015142
1749.12	0.014465
1758.76	0.013738
1768.4	0.01364
1778.05	0.012943
1787.69	0.012784
1797.33	0.01288
1806.97	0.012503
1816.62	0.012756
1826.26	0.012386
1835.9	0.012898
1845.54	0.012536
1855.18	0.012475
1864.83	0.011947
1874.47	0.012244
1884.11	0.012129
1893.75	0.012858
1903.4	0.012972
1913.04	0.012426
1922.68	0.012535
1932.32	0.011874
1941.97	0.012347
1951.61	0.012099
1961.25	0.011682
1970.89	0.012272
1980.54	0.012731
1990.18	0.012468
1999.82	0.011083
2009.46	0.012522
2019.11	0.013943
2028.75	0.013086
2038.39	0.013347
2048.03	0.014881
2057.67	0.014972
2067.32	0.01352
2076.96	0.014973
2086.6	0.01435
2096.24	0.014179
2105.89	0.015494
2115.53	0.015715
2125.17	0.015076
2134.81	0.015722
2144.45	0.014775
2154.1	0.017054
2163.74	0.0206
2173.38	0.020516
2183.02	0.020569
2192.67	0.020988
2202.31	0.020552
2211.95	0.020109
2221.59	0.020302
2231.24	0.020504
2240.88	0.021046
2250.52	0.019727
2260.16	0.021375
2269.8	0.021246
2279.45	0.020844
2289.09	0.020472
2298.73	0.020654
2308.38	0.020622
2318.02	0.021304
2327.66	0.020731
2337.3	0.020869
2346.94	0.020631
2356.59	0.021202
2366.23	0.0219
2375.87	0.020997
2385.51	0.020842
2395.16	0.021318
2404.8	0.021202
2414.44	0.021397
2424.08	0.021805
2433.72	0.021396
2443.37	0.022665
2453.01	0.022663
2462.65	0.022128
2472.29	0.022919
2481.94	0.02266
2491.58	0.023442
2501.22	0.023664
2510.86	0.024051
2520.51	0.024133
2530.15	0.023959
2539.79	0.025296
2549.43	0.02534
2559.07	0.025718
2568.72	0.026012
2578.36	0.027115
2588	0.026855
2597.64	0.026802
2607.29	0.02817
2616.93	0.028643
2626.57	0.028962
2636.21	0.028829
2645.86	0.029251
2655.5	0.030207
2665.14	0.030482
2674.78	0.03097
2684.43	0.032146
2694.07	0.032563
2703.71	0.033258
2713.35	0.034363
2722.99	0.034922
2732.64	0.036048
2742.28	0.03695
2751.92	0.038322
2761.56	0.03891
2771.21	0.04018
2780.85	0.04175
2790.49	0.042916
2800.13	0.044334
2809.78	0.045299
2819.42	0.046759
2829.06	0.048364
2838.7	0.050051
2848.34	0.05077
2857.99	0.052991
2867.63	0.054564
2877.27	0.056321
2886.91	0.057532
2896.56	0.059384
2906.2	0.061485
2915.84	0.062898
2925.48	0.065302
2935.13	0.06673
2944.77	0.068372
2954.41	0.07076
2964.05	0.073369
2973.7	0.073343
2983.34	0.075203
2992.98	0.077135
3002.62	0.079538
3012.26	0.081482
3021.91	0.083689
3031.55	0.086348
3041.19	0.088276
3050.83	0.090296
3060.48	0.092696
3070.12	0.094677
3079.76	0.096278
3089.4	0.098808
3099.05	0.101373
3108.69	0.102447
3118.33	0.105135
3127.97	0.106544
3137.61	0.107436
3147.26	0.108169
3156.9	0.109841
3166.54	0.110831
3176.18	0.111049
3185.83	0.11146
3195.47	0.111466
3205.11	0.112357
3214.75	0.111785
3224.4	0.111563
3234.04	0.10998
3243.68	0.110111
3253.32	0.1102
3262.97	0.108637
3272.61	0.107879
3282.25	0.106939
3291.89	0.10645
3301.53	0.105927
3311.18	0.104645
3320.82	0.102022
3330.46	0.101583
3340.1	0.100273
3349.75	0.098071
3359.39	0.097116
3369.03	0.095513
3378.67	0.094741
3388.32	0.09301
3397.96	0.091338
3407.6	0.091082
3417.24	0.090291
3426.89	0.088874
3436.53	0.086104
3446.17	0.085511
3455.81	0.083448
3465.45	0.082593
3475.1	0.079942
3484.74	0.076814
3494.38	0.073163
3504.02	0.068093
3513.67	0.062066
3523.31	0.055791
3532.95	0.050467
3542.59	0.046254
3552.24	0.041782
3561.88	0.037644
3571.52	0.033548
3581.16	0.030649
3590.8	0.025836
3600.45	0.023901
3610.09	0.020412
3619.73	0.01838
3629.37	0.016645
3639.02	0.015102
3648.66	0.013776
3658.3	0.013379
3667.94	0.011879
3677.59	0.012176
3687.23	0.012728
3696.87	0.012979
3706.51	0.013278
3716.16	0.011657
3725.8	0.012378
3735.44	0.011133
3745.08	0.012216
3754.72	0.011335
3764.37	0.011085
3774.01	0.011605
3783.65	0.010672
3793.29	0.010878
3802.94	0.011928
3812.58	0.01078
3822.22	0.011286
3831.86	0.011473
3841.51	0.011091
3851.15	0.012135
3860.79	0.01234
3870.43	0.010834
3880.07	0.011492
3889.72	0.010773
3899.36	0.011704
3909	0.010642
3918.64	0.011987
3928.29	0.01161
3937.93	0.01148
3947.57	0.009533
3957.21	0.011186
3966.86	0.012358
3976.5	0.011606
3986.14	0.011609
3995.78	0.011961
