Measurement: Infrared, Infrared Data Processed
Mineral: Actinolite
Rruff sample: R040064
Ideal chemistry: Ca_2_(Mg_4.5-2.5_Fe^2+^_0.5-2.5_)Si_8_O_22_(OH)_2_
Locality: Ehime Perfecture, Uma Gun, Japan
Source: University of Arizona Mineral Museum
Description: Aggregate of green acicular crystals associated with chlorite
Measured chemistry: (Ca_0.95_Na_0.04_Mn_0.01_)_2_(Mg_0.88_Fe_0.12_)_5_(Si_0.98_Al_0.02_)_8_O_22_(OH)_2_
x	intensity
399.193	0
408.835	0.318452
418.477	0.313712
428.12	0.329851
437.762	0.395114
447.404	0.347497
457.047	0.321542
466.689	0.279029
476.331	0.228194
485.974	0.198871
495.616	0.216252
505.258	0.219147
514.901	0.173897
524.543	0.156946
534.185	0.142144
543.828	0.105426
553.47	0.074428
563.112	0.0524541
572.755	0.0379969
582.397	0.0298898
592.039	0.0261249
601.682	0.0266396
611.324	0.0294592
620.966	0.0357861
630.609	0.0509003
640.251	0.0837709
649.893	0.0829764
659.536	0.098228
669.178	0.083851
678.82	0.106554
688.463	0.106021
698.105	0.0653549
707.747	0.0504451
717.39	0.0527464
727.032	0.0605006
736.674	0.0728139
746.317	0.0933182
755.959	0.157465
765.601	0.0979945
775.244	0.0547515
784.886	0.0466061
794.528	0.0453783
804.171	0.0480651
813.813	0.0530306
823.455	0.0596697
833.098	0.0668838
842.74	0.079401
852.382	0.0966965
862.025	0.120665
871.667	0.154166
881.309	0.201688
890.952	0.260802
900.594	0.333316
910.236	0.41809
919.879	0.42856
929.521	0.351854
939.163	0.434756
948.806	0.486055
958.448	0.445964
968.09	0.402091
977.733	0.378845
987.375	0.355518
997.017	0.294781
1006.66	0.226627
1016.3	0.176819
1025.94	0.144681
1035.59	0.155609
1045.23	0.144174
1054.87	0.145083
1064.51	0.144023
1074.16	0.131446
1083.8	0.116482
1093.44	0.120112
1103.08	0.126867
1112.72	0.113891
1122.37	0.0850501
1132.01	0.0610628
1141.65	0.035363
1151.3	0.0199023
1160.94	0.0129804
1170.58	0.0100088
1180.22	0.00848879
1189.86	0.00765201
1199.51	0.00686123
1209.15	0.0062622
1218.79	0.00519991
1228.43	0.00526153
1238.08	0.00472856
1247.72	0.00453077
1257.36	0.00410973
1267	0.00438652
1276.64	0.00431559
1286.29	0.00409663
1295.93	0.00440863
1305.57	0.00406181
1315.21	0.00450794
1324.86	0.00460422
1334.5	0.0047721
1344.14	0.00499082
1353.78	0.00526121
1363.43	0.00520643
1373.07	0.00566847
1382.71	0.00596735
1392.35	0.00648727
1401.99	0.00688601
1411.64	0.0076322
1421.28	0.00794674
1430.92	0.00805709
1440.57	0.00817835
1450.21	0.00800841
1459.85	0.00761414
1469.49	0.00745123
1479.13	0.0072176
1488.78	0.0070743
1498.42	0.00698912
1508.06	0.00661738
1517.7	0.00650131
1527.35	0.00679514
1536.99	0.00720081
1546.63	0.00769246
1556.27	0.00773592
1565.91	0.00809241
1575.56	0.00788842
1585.2	0.00868633
1594.84	0.00925277
1604.48	0.00924772
1614.13	0.00939927
1623.77	0.00895218
1633.41	0.00887422
1643.05	0.00883636
1652.7	0.00845893
1662.34	0.0079336
1671.98	0.00770402
1681.62	0.00756752
1691.27	0.00757154
1700.91	0.00657703
1710.55	0.00641383
1720.19	0.00631332
1729.84	0.00608521
1739.48	0.0052821
1749.12	0.00534323
1758.76	0.00595606
1768.4	0.0055438
1778.05	0.00557121
1787.69	0.00558619
1797.33	0.00518963
1806.97	0.00469784
1816.62	0.00450746
1826.26	0.00485922
1835.9	0.00421873
1845.54	0.00444744
1855.18	0.00439691
1864.83	0.00374581
1874.47	0.0041021
1884.11	0.00235921
1893.75	0.00310144
1903.4	0.00219035
1913.04	0.00135085
1922.68	0.0015517
1932.32	0.00125373
1941.97	-0.000494195
1951.61	-0.00171035
1961.25	-0.00291493
1970.89	-0.00366088
1980.54	-0.00163382
1990.18	-0.00105154
1999.82	-0.00172551
2009.46	-0.00166455
2019.11	-0.00210216
2028.75	-0.0014709
2038.39	0.000896287
2048.03	0.00281693
2057.67	0.00288501
2067.32	0.00517871
2076.96	0.00318072
2086.6	0.00534434
2096.24	0.00329662
2105.89	0.00337722
2115.53	0.00406289
2125.17	0.0010469
2134.81	-0.000538326
2144.45	-0.000134084
2154.1	-0.00529466
2163.74	0.00390105
2173.38	-0.000155094
2183.02	0.0018127
2192.67	0.00174591
2202.31	0.00386545
2211.95	0.00362104
2221.59	0.00571663
2231.24	0.00455949
2240.88	0.0061861
2250.52	0.00679921
2260.16	0.00764089
2269.8	0.00769985
2279.45	0.00989811
2289.09	0.010215
2298.73	0.0101946
2308.38	0.0111938
2318.02	0.0110362
2327.66	0.0105588
2337.3	0.0100467
2346.94	0.0102376
2356.59	0.0108057
2366.23	0.0101054
2375.87	0.00988856
2385.51	0.0103703
2395.16	0.00955027
2404.8	0.00943133
2414.44	0.00956781
2424.08	0.0104343
2433.72	0.0105712
2443.37	0.0109797
2453.01	0.0100681
2462.65	0.0101041
2472.29	0.0115307
2481.94	0.0103922
2491.58	0.0101956
2501.22	0.00982698
2510.86	0.00955296
2520.51	0.0107148
2530.15	0.0120501
2539.79	0.0107643
2549.43	0.0107555
2559.07	0.0104144
2568.72	0.0107749
2578.36	0.0126033
2588	0.0117237
2597.64	0.012766
2607.29	0.0129507
2616.93	0.0119331
2626.57	0.0130723
2636.21	0.0129136
2645.86	0.0127953
2655.5	0.0122691
2665.14	0.011691
2674.78	0.0119117
2684.43	0.0121806
2694.07	0.0117048
2703.71	0.012026
2713.35	0.0127074
2722.99	0.0129722
2732.64	0.0130991
2742.28	0.0126597
2751.92	0.0126219
2761.56	0.0133399
2771.21	0.0133166
2780.85	0.0135294
2790.49	0.0134111
2800.13	0.0135275
2809.78	0.0138283
2819.42	0.0132209
2829.06	0.0135417
2838.7	0.0133586
2848.34	0.0120523
2857.99	0.0131501
2867.63	0.012127
2877.27	0.0137856
2886.91	0.0137478
2896.56	0.0151179
2906.2	0.0142656
2915.84	0.0135873
2925.48	0.0128669
2935.13	0.0139714
2944.77	0.014988
2954.41	0.0147488
2964.05	0.0147194
2973.7	0.0159943
2983.34	0.0146669
2992.98	0.0158147
3002.62	0.0162639
3012.26	0.0167499
3021.91	0.0161407
3031.55	0.0170204
3041.19	0.0168027
3050.83	0.0173987
3060.48	0.0173921
3070.12	0.0181723
3079.76	0.0176615
3089.4	0.0186652
3099.05	0.0191247
3108.69	0.0190361
3118.33	0.0192252
3127.97	0.0202136
3137.61	0.0198642
3147.26	0.0215914
3156.9	0.0185141
3166.54	0.02181
3176.18	0.0216124
3185.83	0.0203245
3195.47	0.0214943
3205.11	0.0231015
3214.75	0.023505
3224.4	0.0231869
3234.04	0.0236322
3243.68	0.0245177
3253.32	0.02618
3262.97	0.0263775
3272.61	0.0263319
3282.25	0.026879
3291.89	0.0264115
3301.53	0.0270955
3311.18	0.028393
3320.82	0.0291598
3330.46	0.0296112
3340.1	0.0323364
3349.75	0.0312114
3359.39	0.0331256
3369.03	0.032985
3378.67	0.034449
3388.32	0.0349618
3397.96	0.0347849
3407.6	0.0341253
3417.24	0.0340629
3426.89	0.0342066
3436.53	0.0356779
3446.17	0.033202
3455.81	0.0342639
3465.45	0.0323403
3475.1	0.0337309
3484.74	0.0343982
3494.38	0.033705
3504.02	0.0350979
3513.67	0.0352545
3523.31	0.0357642
3532.95	0.0366421
3542.59	0.038477
3552.24	0.0384087
3561.88	0.0408656
3571.52	0.039755
3581.16	0.0361983
3590.8	0.0334471
3600.45	0.0339149
3610.09	0.0280021
3619.73	0.0254151
3629.37	0.0254206
3639.02	0.0259347
3648.66	0.0228117
3658.3	0.0309666
3667.94	0.0269544
3677.59	0.0264375
3687.23	0.0184905
3696.87	0.021698
3706.51	0.0175608
3716.16	0.019043
3725.8	0.0182704
3735.44	0.0178062
3745.08	0.0177409
3754.72	0.0181895
3764.37	0.0174597
3774.01	0.0179109
3783.65	0.01788
3793.29	0.0169541
3802.94	0.01832
3812.58	0.0207521
3822.22	0.0211354
3831.86	0.0197229
3841.51	0.0205501
3851.15	0.0173834
3860.79	0.0201661
3870.43	0.0186859
3880.07	0.0190059
3889.72	0.0183423
3899.36	0.0202518
3909	0.017953
3918.64	0.0207649
3928.29	0.0186924
3937.93	0.0188439
3947.57	0.0183103
3957.21	0.0204367
3966.86	0.0219216
3976.5	0.0184292
3986.14	0.0206321
3995.78	0.0222486
