Measurement: Infrared, Infrared Data Processed
Mineral: Actinolite
Rruff sample: R050336
Ideal chemistry: Ca_2_(Mg_4.5-2.5_Fe^2+^_0.5-2.5_)Si_8_O_22_(OH)_2_
Locality: Kragerø, Norway
Source: California Institute of Technology
Description: Dark green prismatic fragment
Measured chemistry: ([box]_0.62_Na_0.34_K_0.04_)(Ca_1.60_Na_0.40_)_Σ=2_(Mg_3.90_Fe^2+^_0.70_Al_0.20_Ti_0.10_Fe^3+^_0.10_)_Σ=5_(Si_7.52_Al_0.48_)_Σ=8_O_22_((OH)_0.97_F_0.03_)_2_
x	intensity
399.193	0.296377
408.835	0.322103
418.477	0.332208
428.12	0.35718
437.762	0.369981
447.404	0.343401
457.047	0.332294
466.689	0.29158
476.331	0.247218
485.974	0.222518
495.616	0.227697
505.258	0.22732
514.901	0.190743
524.543	0.171943
534.185	0.147164
543.828	0.115395
553.47	0.0821865
563.112	0.0586387
572.755	0.0439332
582.397	0.0367188
592.039	0.034595
601.682	0.0385338
611.324	0.042291
620.966	0.0478691
630.609	0.0585346
640.251	0.0741396
649.893	0.0810761
659.536	0.0898704
669.178	0.0867288
678.82	0.0920392
688.463	0.0924739
698.105	0.0728681
707.747	0.0619215
717.39	0.061187
727.032	0.0671224
736.674	0.0820659
746.317	0.0996014
755.959	0.116137
765.601	0.100196
775.244	0.0769796
784.886	0.069806
794.528	0.0701279
804.171	0.0733702
813.813	0.0784053
823.455	0.0863639
833.098	0.106018
842.74	0.137364
852.382	0.171747
862.025	0.204543
871.667	0.251077
881.309	0.310476
890.952	0.36755
900.594	0.414328
910.236	0.463369
919.879	0.451254
929.521	0.426954
939.163	0.469561
948.806	0.482395
958.448	0.450739
968.09	0.411307
977.733	0.378883
987.375	0.341781
997.017	0.281844
1006.66	0.226977
1016.3	0.188762
1025.94	0.168427
1035.59	0.17617
1045.23	0.183111
1054.87	0.17832
1064.51	0.162024
1074.16	0.137263
1083.8	0.116889
1093.44	0.114922
1103.08	0.119222
1112.72	0.105031
1122.37	0.0805725
1132.01	0.0557236
1141.65	0.0325455
1151.3	0.0178232
1160.94	0.0125683
1170.58	0.0100273
1180.22	0.00860111
1189.86	0.00753785
1199.51	0.00673795
1209.15	0.0060892
1218.79	0.00536923
1228.43	0.00530719
1238.08	0.00487631
1247.72	0.0049785
1257.36	0.00512609
1267	0.0048514
1276.64	0.00571987
1286.29	0.00594142
1295.93	0.00595106
1305.57	0.00663268
1315.21	0.00745634
1324.86	0.00851786
1334.5	0.0100497
1344.14	0.0121724
1353.78	0.0137328
1363.43	0.0156022
1373.07	0.0176269
1382.71	0.0202587
1392.35	0.0225736
1401.99	0.0241936
1411.64	0.0246422
1421.28	0.0244103
1430.92	0.0247759
1440.57	0.0251251
1450.21	0.0247346
1459.85	0.0236363
1469.49	0.0219093
1479.13	0.0203726
1488.78	0.0182648
1498.42	0.0173453
1508.06	0.0156719
1517.7	0.0146961
1527.35	0.0137259
1536.99	0.0127274
1546.63	0.0118997
1556.27	0.0107463
1565.91	0.0104128
1575.56	0.0100655
1585.2	0.00961279
1594.84	0.0096636
1604.48	0.00954204
1614.13	0.00931652
1623.77	0.008909
1633.41	0.0091627
1643.05	0.00913391
1652.7	0.00849408
1662.34	0.0079734
1671.98	0.00782424
1681.62	0.00729623
1691.27	0.00674722
1700.91	0.00702518
1710.55	0.0067184
1720.19	0.00628031
1729.84	0.00614572
1739.48	0.00541564
1749.12	0.00459612
1758.76	0.00462339
1768.4	0.00480928
1778.05	0.00440172
1787.69	0.00440474
1797.33	0.00418214
1806.97	0.00453873
1816.62	0.00411205
1826.26	0.00404714
1835.9	0.00376304
1845.54	0.00325466
1855.18	0.00342956
1864.83	0.00340978
1874.47	0.00353588
1884.11	0.0024419
1893.75	0.00271902
1903.4	0.00304741
1913.04	0.00320804
1922.68	-0.000162244
1932.32	0.00191989
1941.97	5.77839e-05
1951.61	-0.00159287
1961.25	-0.00575888
1970.89	-0.00390694
1980.54	0.00109444
1990.18	-0.000876988
1999.82	-0.00307092
2009.46	-0.00117617
2019.11	-0.00290611
2028.75	-0.0012813
2038.39	0.000397225
2048.03	0.00481489
2057.67	0.00399672
2067.32	0.00450355
2076.96	0.0027142
2086.6	0.0042048
2096.24	0.00235388
2105.89	0.00210604
2115.53	0.00512391
2125.17	0.00176955
2134.81	0.000381906
2144.45	0.000618877
2154.1	-0.00187903
2163.74	0.00648961
2173.38	0.0053022
2183.02	0.00477771
2192.67	0.00365974
2202.31	0.00311738
2211.95	0.00459245
2221.59	0.00714763
2231.24	0.00663882
2240.88	0.00707825
2250.52	0.00611945
2260.16	0.00756396
2269.8	0.00671057
2279.45	0.0107557
2289.09	0.00957107
2298.73	0.0107075
2308.38	0.00994814
2318.02	0.0113429
2327.66	0.00961444
2337.3	0.00914182
2346.94	0.00885544
2356.59	0.00724618
2366.23	0.00801295
2375.87	0.00899556
2385.51	0.00906197
2395.16	0.00860267
2404.8	0.00920837
2414.44	0.0104097
2424.08	0.0106191
2433.72	0.00971223
2443.37	0.0108524
2453.01	0.0103361
2462.65	0.0113376
2472.29	0.00865195
2481.94	0.0104897
2491.58	0.0104283
2501.22	0.0100923
2510.86	0.0108479
2520.51	0.0108634
2530.15	0.0117944
2539.79	0.0102994
2549.43	0.0119812
2559.07	0.0118109
2568.72	0.0104559
2578.36	0.0118722
2588	0.0121547
2597.64	0.0115051
2607.29	0.0102006
2616.93	0.0113909
2626.57	0.0126185
2636.21	0.0116879
2645.86	0.0134916
2655.5	0.0121415
2665.14	0.0112232
2674.78	0.0106772
2684.43	0.0116613
2694.07	0.0113671
2703.71	0.0114073
2713.35	0.0117276
2722.99	0.01196
2732.64	0.0129253
2742.28	0.0136069
2751.92	0.0122051
2761.56	0.0120669
2771.21	0.0135303
2780.85	0.0128822
2790.49	0.0124137
2800.13	0.0125018
2809.78	0.0134685
2819.42	0.0119518
2829.06	0.0139244
2838.7	0.0139647
2848.34	0.0150898
2857.99	0.0159511
2867.63	0.0147684
2877.27	0.0147896
2886.91	0.015162
2896.56	0.0181865
2906.2	0.017001
2915.84	0.0187204
2925.48	0.0173686
2935.13	0.0166089
2944.77	0.0167755
2954.41	0.0161021
2964.05	0.0151682
2973.7	0.015623
2983.34	0.0154432
2992.98	0.0168514
3002.62	0.0152475
3012.26	0.0157152
3021.91	0.0181619
3031.55	0.0169154
3041.19	0.0155199
3050.83	0.0173661
3060.48	0.0172943
3070.12	0.0184912
3079.76	0.0195778
3089.4	0.0188246
3099.05	0.0197958
3108.69	0.018535
3118.33	0.0172859
3127.97	0.0192239
3137.61	0.0184949
3147.26	0.0191303
3156.9	0.0218992
3166.54	0.0201178
3176.18	0.019966
3185.83	0.0219976
3195.47	0.0216975
3205.11	0.0218542
3214.75	0.0205347
3224.4	0.0236594
3234.04	0.0214875
3243.68	0.0232077
3253.32	0.0220593
3262.97	0.025355
3272.61	0.0218527
3282.25	0.0219356
3291.89	0.0255633
3301.53	0.0223819
3311.18	0.0239069
3320.82	0.0218332
3330.46	0.0243775
3340.1	0.023738
3349.75	0.0221613
3359.39	0.0255856
3369.03	0.0229714
3378.67	0.0248047
3388.32	0.0283392
3397.96	0.0229646
3407.6	0.0238008
3417.24	0.0227934
3426.89	0.0259681
3436.53	0.0254586
3446.17	0.0228951
3455.81	0.0234708
3465.45	0.0226247
3475.1	0.0236536
3484.74	0.0217862
3494.38	0.02038
3504.02	0.020832
3513.67	0.0224569
3523.31	0.0225061
3532.95	0.0213893
3542.59	0.0240116
3552.24	0.0223635
3561.88	0.0227146
3571.52	0.0184924
3581.16	0.0216587
3590.8	0.0182734
3600.45	0.0144622
3610.09	0.0220913
3619.73	0.0165901
3629.37	0.0199728
3639.02	0.0190013
3648.66	0.0177887
3658.3	0.020046
3667.94	0.0265479
3677.59	0.0231559
3687.23	0.0186908
3696.87	0.0209283
3706.51	0.0187431
3716.16	0.0165987
3725.8	0.0142239
3735.44	0.0137619
3745.08	0.0208081
3754.72	0.016774
3764.37	0.0163063
3774.01	0.0205702
3783.65	0.0243956
3793.29	0.0152641
3802.94	0.0151345
3812.58	0.0160343
3822.22	0.0169204
3831.86	0.018029
3841.51	0.020314
3851.15	0.0211125
3860.79	0.0188642
3870.43	0.0211359
3880.07	0.0188129
3889.72	0.0212935
3899.36	0.021691
3909	0.019065
3918.64	0.0200028
3928.29	0.0196116
3937.93	0.0195883
3947.57	0.0162918
3957.21	0.021654
3966.86	0.02179
3976.5	0.016726
3986.14	0.0134681
3995.78	0.0217531
