Measurement: Infrared, Infrared Data Processed
Mineral: Adamite
Rruff sample: R050020
Ideal chemistry: Zn^2+^_2_As^5+^O_4_(OH)
Locality: Mina Ojuela, Mapimi, Durango, Mexico
Source: Eugene Schlepp
Description: Light green prismatic crystal
Measured chemistry: (Zn_1.97_Cu_0.03_)_Σ=2_((As_0.98_P_0.02_)_Σ=1_O_4_)(OH)
x	intensity
399.193	0
408.835	0.0667448
418.477	0.041586
428.12	0.0362803
437.762	0.0405853
447.404	0.0524101
457.047	0.0796617
466.689	0.118746
476.331	0.113815
485.974	0.106928
495.616	0.133794
505.258	0.151148
514.901	0.150496
524.543	0.154181
534.185	0.137328
543.828	0.101678
553.47	0.0647984
563.112	0.0387878
572.755	0.0279197
582.397	0.0227537
592.039	0.0198443
601.682	0.0186704
611.324	0.0192063
620.966	0.0215003
630.609	0.0237725
640.251	0.0222214
649.893	0.0251708
659.536	0.0287797
669.178	0.0343048
678.82	0.0397947
688.463	0.0477557
698.105	0.0579334
707.747	0.0728009
717.39	0.0961771
727.032	0.127767
736.674	0.136235
746.317	0.156897
755.959	0.201144
765.601	0.247965
775.244	0.292988
784.886	0.328911
794.528	0.333652
804.171	0.310622
813.813	0.304806
823.455	0.267204
833.098	0.212114
842.74	0.171379
852.382	0.127275
862.025	0.0914332
871.667	0.0802869
881.309	0.0866608
890.952	0.0836376
900.594	0.0662319
910.236	0.0458138
919.879	0.0296149
929.521	0.0208191
939.163	0.0165051
948.806	0.0137722
958.448	0.0120603
968.09	0.0108628
977.733	0.0104392
987.375	0.010665
997.017	0.0114279
1006.66	0.0133235
1016.3	0.0202305
1025.94	0.0183707
1035.59	0.0171396
1045.23	0.0143154
1054.87	0.0114548
1064.51	0.00982414
1074.16	0.00895398
1083.8	0.00860118
1093.44	0.00743277
1103.08	0.00689167
1112.72	0.00663602
1122.37	0.00681269
1132.01	0.00666983
1141.65	0.00655007
1151.3	0.00681944
1160.94	0.00647449
1170.58	0.00675559
1180.22	0.00686175
1189.86	0.00702388
1199.51	0.0070046
1209.15	0.00755098
1218.79	0.00738542
1228.43	0.00730036
1238.08	0.00760768
1247.72	0.0075969
1257.36	0.00789252
1267	0.00796579
1276.64	0.00807661
1286.29	0.00850448
1295.93	0.00863599
1305.57	0.00898629
1315.21	0.00935691
1324.86	0.00948696
1334.5	0.0100181
1344.14	0.0100281
1353.78	0.0104425
1363.43	0.0112574
1373.07	0.0114699
1382.71	0.012372
1392.35	0.0130428
1401.99	0.0152313
1411.64	0.0178749
1421.28	0.0192744
1430.92	0.0216679
1440.57	0.0229372
1450.21	0.0232408
1459.85	0.0229686
1469.49	0.0213341
1479.13	0.0198412
1488.78	0.0173745
1498.42	0.0157894
1508.06	0.0144619
1517.7	0.0138419
1527.35	0.0135845
1536.99	0.0123912
1546.63	0.0141166
1556.27	0.012513
1565.91	0.014915
1575.56	0.012693
1585.2	0.0152415
1594.84	0.0156789
1604.48	0.0158871
1614.13	0.0157461
1623.77	0.0160745
1633.41	0.0152644
1643.05	0.0159216
1652.7	0.012354
1662.34	0.0153949
1671.98	0.0153062
1681.62	0.0142327
1691.27	0.0158139
1700.91	0.015379
1710.55	0.0157152
1720.19	0.015623
1729.84	0.0146917
1739.48	0.013545
1749.12	0.0139299
1758.76	0.0146912
1768.4	0.0148401
1778.05	0.0148292
1787.69	0.0147613
1797.33	0.0148399
1806.97	0.0159138
1816.62	0.0159093
1826.26	0.0163869
1835.9	0.0158701
1845.54	0.0163693
1855.18	0.0170145
1864.83	0.0174409
1874.47	0.0169568
1884.11	0.018121
1893.75	0.0178129
1903.4	0.0179596
1913.04	0.0177954
1922.68	0.0189867
1932.32	0.0175706
1941.97	0.0184812
1951.61	0.0192058
1961.25	0.021906
1970.89	0.0225515
1980.54	0.0228076
1990.18	0.0210545
1999.82	0.0192628
2009.46	0.0224585
2019.11	0.0232137
2028.75	0.024009
2038.39	0.0249109
2048.03	0.0214528
2057.67	0.0219456
2067.32	0.0220174
2076.96	0.0226069
2086.6	0.0206161
2096.24	0.0199401
2105.89	0.0209873
2115.53	0.0221086
2125.17	0.0209379
2134.81	0.0214957
2144.45	0.0227091
2154.1	0.0217261
2163.74	0.0275834
2173.38	0.0253413
2183.02	0.0252716
2192.67	0.0274924
2202.31	0.0258245
2211.95	0.0260707
2221.59	0.0268883
2231.24	0.0258603
2240.88	0.0243076
2250.52	0.0247745
2260.16	0.0251343
2269.8	0.0238573
2279.45	0.0263247
2289.09	0.0260187
2298.73	0.0236773
2308.38	0.0247534
2318.02	0.0253212
2327.66	0.0243106
2337.3	0.0242169
2346.94	0.023929
2356.59	0.0245299
2366.23	0.0235008
2375.87	0.0232102
2385.51	0.0236598
2395.16	0.025135
2404.8	0.0254716
2414.44	0.0242647
2424.08	0.0255493
2433.72	0.0257758
2443.37	0.0260104
2453.01	0.0269575
2462.65	0.0263103
2472.29	0.0269567
2481.94	0.0279048
2491.58	0.025415
2501.22	0.0274761
2510.86	0.0282984
2520.51	0.0272159
2530.15	0.0263344
2539.79	0.0277085
2549.43	0.0281908
2559.07	0.0272118
2568.72	0.0273829
2578.36	0.0285249
2588	0.0286173
2597.64	0.0290685
2607.29	0.0286315
2616.93	0.0291722
2626.57	0.0291691
2636.21	0.0290003
2645.86	0.0280462
2655.5	0.0276265
2665.14	0.028602
2674.78	0.0272735
2684.43	0.028029
2694.07	0.0281399
2703.71	0.0293952
2713.35	0.0283576
2722.99	0.0292784
2732.64	0.0285203
2742.28	0.028545
2751.92	0.0292747
2761.56	0.0292141
2771.21	0.0295881
2780.85	0.029911
2790.49	0.0299597
2800.13	0.0296849
2809.78	0.0300747
2819.42	0.0302786
2829.06	0.0303216
2838.7	0.0308342
2848.34	0.0300376
2857.99	0.0317322
2867.63	0.0307189
2877.27	0.0312854
2886.91	0.031238
2896.56	0.0317601
2906.2	0.0326395
2915.84	0.0307751
2925.48	0.0331458
2935.13	0.0311191
2944.77	0.0316656
2954.41	0.0319448
2964.05	0.0328685
2973.7	0.0335388
2983.34	0.0337738
2992.98	0.0333661
3002.62	0.0333065
3012.26	0.0348426
3021.91	0.0336039
3031.55	0.0339556
3041.19	0.0335764
3050.83	0.0355411
3060.48	0.0360567
3070.12	0.0362664
3079.76	0.0355205
3089.4	0.0350634
3099.05	0.0356006
3108.69	0.035625
3118.33	0.0344056
3127.97	0.0352178
3137.61	0.036126
3147.26	0.0376054
3156.9	0.0373235
3166.54	0.0382732
3176.18	0.0360986
3185.83	0.0374772
3195.47	0.0374752
3205.11	0.0368804
3214.75	0.0368981
3224.4	0.0365934
3234.04	0.0379116
3243.68	0.0372907
3253.32	0.0381999
3262.97	0.0404602
3272.61	0.037705
3282.25	0.0389763
3291.89	0.0410978
3301.53	0.0395517
3311.18	0.0398536
3320.82	0.0399892
3330.46	0.039379
3340.1	0.0403138
3349.75	0.0388503
3359.39	0.0412331
3369.03	0.041902
3378.67	0.0411247
3388.32	0.0426823
3397.96	0.0410515
3407.6	0.041193
3417.24	0.0411983
3426.89	0.0437024
3436.53	0.0450921
3446.17	0.0438009
3455.81	0.0445425
3465.45	0.0452649
3475.1	0.0441889
3484.74	0.0427955
3494.38	0.0462808
3504.02	0.0443957
3513.67	0.0524072
3523.31	0.0574832
3532.95	0.0700113
3542.59	0.103958
3552.24	0.0875989
3561.88	0.0452103
3571.52	0.0365585
3581.16	0.0369576
3590.8	0.036646
3600.45	0.0374486
3610.09	0.0357006
3619.73	0.0340271
3629.37	0.0378898
3639.02	0.0403052
3648.66	0.0341852
3658.3	0.0386546
3667.94	0.0358267
3677.59	0.0410764
3687.23	0.0330718
3696.87	0.0415195
3706.51	0.0402351
3716.16	0.039495
3725.8	0.0392543
3735.44	0.0354116
3745.08	0.0392016
3754.72	0.0394493
3764.37	0.041299
3774.01	0.0421441
3783.65	0.042741
3793.29	0.0455914
3802.94	0.0455248
3812.58	0.0420091
3822.22	0.0390852
3831.86	0.0407557
3841.51	0.038204
3851.15	0.0399858
3860.79	0.0436262
3870.43	0.0416758
3880.07	0.0464906
3889.72	0.0430979
3899.36	0.0404343
3909	0.0408872
3918.64	0.0462632
3928.29	0.0440618
3937.93	0.0464093
3947.57	0.0459628
3957.21	0.0405594
3966.86	0.0474045
3976.5	0.0477481
3986.14	0.0496489
3995.78	0.0488666
