Measurement: Infrared, Infrared Data Processed
Mineral: Aegirine
Rruff sample: R040054
Ideal chemistry: NaFe^3+^Si_2_O_6_
Locality: Mont Saint-Hilaire, Rouville County, Quebec, Canada
Source: Bob Downs
Description: Black cleavage fragments
Measured chemistry: (Na_0.96_Ca_0.04_)(Fe_0.86_Ti_0.07_Mn_0.06_Mg_0.02_)(Si_0.97_Al_0.03_)_2_O_6_
x	intensity
399.193	0
408.835	0.149715
418.477	0.137815
428.12	0.16201
437.762	0.20093
447.404	0.228129
457.047	0.236514
466.689	0.232062
476.331	0.201648
485.974	0.181436
495.616	0.181928
505.258	0.161751
514.901	0.119469
524.543	0.107422
534.185	0.121703
543.828	0.141134
553.47	0.134466
563.112	0.128568
572.755	0.107819
582.397	0.074232
592.039	0.0468683
601.682	0.0354143
611.324	0.0370858
620.966	0.0475724
630.609	0.0702238
640.251	0.0967419
649.893	0.071666
659.536	0.0373833
669.178	0.0289691
678.82	0.0305463
688.463	0.0330562
698.105	0.0357618
707.747	0.0409219
717.39	0.049515
727.032	0.0664738
736.674	0.064805
746.317	0.0553368
755.959	0.0599183
765.601	0.0680589
775.244	0.0794474
784.886	0.093215
794.528	0.109997
804.171	0.131446
813.813	0.157818
823.455	0.184521
833.098	0.204792
842.74	0.231522
852.382	0.255954
862.025	0.257093
871.667	0.245796
881.309	0.261716
890.952	0.287438
900.594	0.304889
910.236	0.313137
919.879	0.318296
929.521	0.321861
939.163	0.320572
948.806	0.318881
958.448	0.307714
968.09	0.28646
977.733	0.263792
987.375	0.251947
997.017	0.246173
1006.66	0.235846
1016.3	0.213508
1025.94	0.190779
1035.59	0.185664
1045.23	0.169895
1054.87	0.151945
1064.51	0.135324
1074.16	0.117111
1083.8	0.101
1093.44	0.088828
1103.08	0.0783113
1112.72	0.0659238
1122.37	0.0513637
1132.01	0.0379039
1141.65	0.0265539
1151.3	0.0164593
1160.94	0.0120875
1170.58	0.0101133
1180.22	0.00907638
1189.86	0.0083858
1199.51	0.00803637
1209.15	0.00773447
1218.79	0.00754094
1228.43	0.00722902
1238.08	0.00723039
1247.72	0.00757792
1257.36	0.00800612
1267	0.0081895
1276.64	0.00855611
1286.29	0.00923475
1295.93	0.00969234
1305.57	0.0104937
1315.21	0.011342
1324.86	0.0124531
1334.5	0.0138367
1344.14	0.0151751
1353.78	0.0167236
1363.43	0.0185201
1373.07	0.0201611
1382.71	0.0219706
1392.35	0.0248251
1401.99	0.030137
1411.64	0.0352696
1421.28	0.0384229
1430.92	0.0405273
1440.57	0.0412094
1450.21	0.0403374
1459.85	0.0379882
1469.49	0.0346276
1479.13	0.031393
1488.78	0.0274693
1498.42	0.0238145
1508.06	0.020131
1517.7	0.0174533
1527.35	0.0156353
1536.99	0.0144583
1546.63	0.0142439
1556.27	0.0141722
1565.91	0.0147158
1575.56	0.0151461
1585.2	0.0157207
1594.84	0.016013
1604.48	0.015746
1614.13	0.0153755
1623.77	0.0142623
1633.41	0.0131311
1643.05	0.0126444
1652.7	0.0115916
1662.34	0.0111144
1671.98	0.0111596
1681.62	0.0111614
1691.27	0.0111232
1700.91	0.0110274
1710.55	0.0107253
1720.19	0.0103926
1729.84	0.0102401
1739.48	0.010056
1749.12	0.00997115
1758.76	0.0106743
1768.4	0.0104666
1778.05	0.0106805
1787.69	0.0104795
1797.33	0.0104601
1806.97	0.0105273
1816.62	0.00953162
1826.26	0.00966119
1835.9	0.00975737
1845.54	0.00959611
1855.18	0.00959147
1864.83	0.00960321
1874.47	0.00960595
1884.11	0.00912002
1893.75	0.00914591
1903.4	0.00904922
1913.04	0.00879523
1922.68	0.00940895
1932.32	0.00753828
1941.97	0.00772917
1951.61	0.00549252
1961.25	0.00590005
1970.89	0.00383804
1980.54	0.00829351
1990.18	0.00593842
1999.82	0.00531969
2009.46	0.00652655
2019.11	0.0050396
2028.75	0.00407446
2038.39	0.00829928
2048.03	0.0106468
2057.67	0.0101716
2067.32	0.0114292
2076.96	0.0105394
2086.6	0.0119764
2096.24	0.0103409
2105.89	0.0111094
2115.53	0.0123698
2125.17	0.0109465
2134.81	0.0092677
2144.45	0.00700379
2154.1	0.00661658
2163.74	0.0116711
2173.38	0.0140676
2183.02	0.0107012
2192.67	0.0121049
2202.31	0.0149578
2211.95	0.0139004
2221.59	0.0141256
2231.24	0.0146284
2240.88	0.016601
2250.52	0.018536
2260.16	0.0191434
2269.8	0.020151
2279.45	0.0201197
2289.09	0.0204102
2298.73	0.0205225
2308.38	0.020644
2318.02	0.0212102
2327.66	0.0207885
2337.3	0.0207824
2346.94	0.0210734
2356.59	0.0219761
2366.23	0.0203776
2375.87	0.0201383
2385.51	0.0203702
2395.16	0.0205712
2404.8	0.0202001
2414.44	0.02129
2424.08	0.0210257
2433.72	0.0213292
2443.37	0.0207186
2453.01	0.0221345
2462.65	0.0215647
2472.29	0.0216484
2481.94	0.0223605
2491.58	0.0236384
2501.22	0.0224496
2510.86	0.0229528
2520.51	0.0218418
2530.15	0.0233262
2539.79	0.0235369
2549.43	0.0233277
2559.07	0.0234416
2568.72	0.0238835
2578.36	0.0245204
2588	0.0236368
2597.64	0.0247617
2607.29	0.0248992
2616.93	0.0253341
2626.57	0.025138
2636.21	0.0249498
2645.86	0.0249409
2655.5	0.0254041
2665.14	0.0259207
2674.78	0.0244225
2684.43	0.0249907
2694.07	0.0247247
2703.71	0.0253862
2713.35	0.0245004
2722.99	0.0259938
2732.64	0.0254879
2742.28	0.0254039
2751.92	0.0257057
2761.56	0.0265367
2771.21	0.026312
2780.85	0.0265606
2790.49	0.0263
2800.13	0.0257536
2809.78	0.0265295
2819.42	0.0281622
2829.06	0.027402
2838.7	0.0273351
2848.34	0.0271353
2857.99	0.0269445
2867.63	0.0273106
2877.27	0.0271364
2886.91	0.0276853
2896.56	0.0276045
2906.2	0.0278605
2915.84	0.0277132
2925.48	0.0280598
2935.13	0.028643
2944.77	0.0286585
2954.41	0.0275477
2964.05	0.0294723
2973.7	0.0292621
2983.34	0.0306638
2992.98	0.0290171
3002.62	0.0296623
3012.26	0.0305854
3021.91	0.0307635
3031.55	0.0314941
3041.19	0.0307146
3050.83	0.0316023
3060.48	0.0315343
3070.12	0.0325977
3079.76	0.0324178
3089.4	0.0325592
3099.05	0.0318698
3108.69	0.0331125
3118.33	0.0334803
3127.97	0.0333247
3137.61	0.0350958
3147.26	0.0341764
3156.9	0.0345417
3166.54	0.0347223
3176.18	0.0340334
3185.83	0.0342235
3195.47	0.033575
3205.11	0.035568
3214.75	0.0340844
3224.4	0.0347299
3234.04	0.0355902
3243.68	0.0362092
3253.32	0.0360211
3262.97	0.0352607
3272.61	0.0366541
3282.25	0.0356252
3291.89	0.0376418
3301.53	0.0363256
3311.18	0.0365784
3320.82	0.036338
3330.46	0.0368372
3340.1	0.0377607
3349.75	0.0386493
3359.39	0.0371854
3369.03	0.0365421
3378.67	0.0372095
3388.32	0.0382156
3397.96	0.0375951
3407.6	0.0391111
3417.24	0.0377729
3426.89	0.0361872
3436.53	0.0367073
3446.17	0.0379241
3455.81	0.0391529
3465.45	0.0370487
3475.1	0.0381296
3484.74	0.0393257
3494.38	0.0381064
3504.02	0.0379919
3513.67	0.0377764
3523.31	0.0373515
3532.95	0.0378654
3542.59	0.0386313
3552.24	0.0394575
3561.88	0.0379725
3571.52	0.0366946
3581.16	0.0367245
3590.8	0.0390384
3600.45	0.0365435
3610.09	0.0381897
3619.73	0.037402
3629.37	0.0354479
3639.02	0.0371324
3648.66	0.0357114
3658.3	0.036281
3667.94	0.0355896
3677.59	0.0376365
3687.23	0.0371589
3696.87	0.0387402
3706.51	0.0385673
3716.16	0.0356708
3725.8	0.0405924
3735.44	0.0410295
3745.08	0.0382743
3754.72	0.0390562
3764.37	0.0411252
3774.01	0.0393161
3783.65	0.0405942
3793.29	0.0403735
3802.94	0.0408547
3812.58	0.0422899
3822.22	0.0412341
3831.86	0.0399194
3841.51	0.0397442
3851.15	0.0402686
3860.79	0.0406537
3870.43	0.0417133
3880.07	0.0412933
3889.72	0.0404192
3899.36	0.0424711
3909	0.0405424
3918.64	0.0397091
3928.29	0.0398835
3937.93	0.0424959
3947.57	0.0427431
3957.21	0.0433651
3966.86	0.0436626
3976.5	0.0445069
3986.14	0.0418356
3995.78	0.0410737
