Measurement: Infrared, Infrared Data Processed
Mineral: Alabandite
Rruff sample: R070174
Ideal chemistry: Mn^2+^S^2-^
Locality: Mina Preciosa, Sangue de Cristo, Puebla, Mexico
Source: Michael Scott
Description: Dull dark gray semi-metallic coarse crystals associated with pyrite and calcite
Measured chemistry: Mn^2+^_1.00_S_1.00_
x	intensity
399.193	0.0250577
408.835	0.02885
418.477	0.0321202
428.12	0.0379129
437.762	0.0413801
447.404	0.0502665
457.047	0.0582609
466.689	0.0660668
476.331	0.0737896
485.974	0.0818159
495.616	0.0896583
505.258	0.0977509
514.901	0.105134
524.543	0.111442
534.185	0.117589
543.828	0.124045
553.47	0.129273
563.112	0.134116
572.755	0.139112
582.397	0.144899
592.039	0.149911
601.682	0.154745
611.324	0.158739
620.966	0.163201
630.609	0.166589
640.251	0.169811
649.893	0.172701
659.536	0.175047
669.178	0.177655
678.82	0.179719
688.463	0.182162
698.105	0.185134
707.747	0.187704
717.39	0.190006
727.032	0.193098
736.674	0.194567
746.317	0.197121
755.959	0.199242
765.601	0.201565
775.244	0.203655
784.886	0.205775
794.528	0.208081
804.171	0.209876
813.813	0.212708
823.455	0.214615
833.098	0.21702
842.74	0.219232
852.382	0.221471
862.025	0.224227
871.667	0.22438
881.309	0.22534
890.952	0.227538
900.594	0.229394
910.236	0.231024
919.879	0.232454
929.521	0.234458
939.163	0.235876
948.806	0.237421
958.448	0.238902
968.09	0.24107
977.733	0.243178
987.375	0.245272
997.017	0.246949
1006.66	0.247887
1016.3	0.24926
1025.94	0.250202
1035.59	0.251954
1045.23	0.253676
1054.87	0.255339
1064.51	0.25703
1074.16	0.259157
1083.8	0.26067
1093.44	0.262329
1103.08	0.263929
1112.72	0.265126
1122.37	0.266787
1132.01	0.268532
1141.65	0.270891
1151.3	0.271486
1160.94	0.271845
1170.58	0.27213
1180.22	0.272829
1189.86	0.27397
1199.51	0.274952
1209.15	0.275424
1218.79	0.276304
1228.43	0.277714
1238.08	0.279312
1247.72	0.280134
1257.36	0.281087
1267	0.282191
1276.64	0.283568
1286.29	0.28472
1295.93	0.286263
1305.57	0.287745
1315.21	0.289014
1324.86	0.290472
1334.5	0.292231
1344.14	0.293795
1353.78	0.295591
1363.43	0.2976
1373.07	0.299274
1382.71	0.301133
1392.35	0.303086
1401.99	0.30417
1411.64	0.30518
1421.28	0.306157
1430.92	0.30691
1440.57	0.307522
1450.21	0.308076
1459.85	0.308739
1469.49	0.308755
1479.13	0.309293
1488.78	0.309988
1498.42	0.310254
1508.06	0.310975
1517.7	0.311157
1527.35	0.311655
1536.99	0.312236
1546.63	0.313112
1556.27	0.314226
1565.91	0.314998
1575.56	0.316451
1585.2	0.316924
1594.84	0.317607
1604.48	0.317958
1614.13	0.318599
1623.77	0.319239
1633.41	0.319972
1643.05	0.320506
1652.7	0.322165
1662.34	0.321833
1671.98	0.322714
1681.62	0.324008
1691.27	0.324962
1700.91	0.326614
1710.55	0.32748
1720.19	0.329281
1729.84	0.330476
1739.48	0.330646
1749.12	0.329576
1758.76	0.330394
1768.4	0.33161
1778.05	0.332474
1787.69	0.333253
1797.33	0.334265
1806.97	0.33452
1816.62	0.334841
1826.26	0.336052
1835.9	0.337035
1845.54	0.338126
1855.18	0.338568
1864.83	0.339277
1874.47	0.339935
1884.11	0.339403
1893.75	0.341966
1903.4	0.341522
1913.04	0.343384
1922.68	0.343173
1932.32	0.343819
1941.97	0.345353
1951.61	0.347108
1961.25	0.348207
1970.89	0.346754
1980.54	0.348566
1990.18	0.349395
1999.82	0.352303
2009.46	0.352872
2019.11	0.352902
2028.75	0.352042
2038.39	0.353457
2048.03	0.354025
2057.67	0.356594
2067.32	0.356532
2076.96	0.357449
2086.6	0.358137
2096.24	0.359965
2105.89	0.360349
2115.53	0.361781
2125.17	0.361397
2134.81	0.360871
2144.45	0.361873
2154.1	0.363049
2163.74	0.36539
2173.38	0.364865
2183.02	0.366759
2192.67	0.365355
2202.31	0.367895
2211.95	0.36841
2221.59	0.368757
2231.24	0.36998
2240.88	0.372306
2250.52	0.372715
2260.16	0.371786
2269.8	0.373035
2279.45	0.374338
2289.09	0.375353
2298.73	0.375891
2308.38	0.376335
2318.02	0.378026
2327.66	0.377795
2337.3	0.378436
2346.94	0.379648
2356.59	0.379849
2366.23	0.380779
2375.87	0.381062
2385.51	0.38202
2395.16	0.382716
2404.8	0.382028
2414.44	0.383934
2424.08	0.383924
2433.72	0.385014
2443.37	0.38558
2453.01	0.387538
2462.65	0.387855
2472.29	0.388392
2481.94	0.389531
2491.58	0.389446
2501.22	0.390391
2510.86	0.391409
2520.51	0.392227
2530.15	0.39279
2539.79	0.393558
2549.43	0.394205
2559.07	0.395625
2568.72	0.396018
2578.36	0.397247
2588	0.398442
2597.64	0.399225
2607.29	0.399695
2616.93	0.400744
2626.57	0.401624
2636.21	0.40272
2645.86	0.403759
2655.5	0.404707
2665.14	0.405084
2674.78	0.405644
2684.43	0.406458
2694.07	0.407158
2703.71	0.408053
2713.35	0.408972
2722.99	0.408979
2732.64	0.410276
2742.28	0.410375
2751.92	0.411351
2761.56	0.412829
2771.21	0.412892
2780.85	0.413447
2790.49	0.414272
2800.13	0.415299
2809.78	0.415705
2819.42	0.416921
2829.06	0.416939
2838.7	0.417768
2848.34	0.416676
2857.99	0.417759
2867.63	0.418715
2877.27	0.419844
2886.91	0.42089
2896.56	0.420766
2906.2	0.421636
2915.84	0.419839
2925.48	0.419811
2935.13	0.421351
2944.77	0.422739
2954.41	0.424618
2964.05	0.424638
2973.7	0.425183
2983.34	0.426022
2992.98	0.425726
3002.62	0.427277
3012.26	0.428251
3021.91	0.428659
3031.55	0.429262
3041.19	0.429957
3050.83	0.430523
3060.48	0.431557
3070.12	0.432318
3079.76	0.433635
3089.4	0.432883
3099.05	0.434708
3108.69	0.434645
3118.33	0.436021
3127.97	0.436081
3137.61	0.437431
3147.26	0.438346
3156.9	0.438281
3166.54	0.439938
3176.18	0.440507
3185.83	0.44096
3195.47	0.442199
3205.11	0.442893
3214.75	0.443423
3224.4	0.444251
3234.04	0.444728
3243.68	0.445379
3253.32	0.446416
3262.97	0.446958
3272.61	0.447515
3282.25	0.449433
3291.89	0.449398
3301.53	0.449977
3311.18	0.450733
3320.82	0.451403
3330.46	0.452183
3340.1	0.453632
3349.75	0.453664
3359.39	0.453792
3369.03	0.45413
3378.67	0.45545
3388.32	0.455809
3397.96	0.45666
3407.6	0.457722
3417.24	0.457332
3426.89	0.458095
3436.53	0.459208
3446.17	0.458569
3455.81	0.460578
3465.45	0.460723
3475.1	0.461438
3484.74	0.462377
3494.38	0.462349
3504.02	0.46449
3513.67	0.464045
3523.31	0.464258
3532.95	0.465274
3542.59	0.465683
3552.24	0.464909
3561.88	0.465533
3571.52	0.466337
3581.16	0.467488
3590.8	0.466225
3600.45	0.467546
3610.09	0.468771
3619.73	0.469223
3629.37	0.471167
3639.02	0.469889
3648.66	0.471282
3658.3	0.471225
3667.94	0.472369
3677.59	0.473599
3687.23	0.474868
3696.87	0.475527
3706.51	0.475441
3716.16	0.475676
3725.8	0.477939
3735.44	0.47848
3745.08	0.480246
3754.72	0.479128
3764.37	0.480637
3774.01	0.480046
3783.65	0.482112
3793.29	0.481551
3802.94	0.48438
3812.58	0.483581
3822.22	0.485546
3831.86	0.485428
3841.51	0.486789
3851.15	0.487419
3860.79	0.48825
3870.43	0.48958
3880.07	0.488163
3889.72	0.490157
3899.36	0.490144
3909	0.49026
3918.64	0.491685
3928.29	0.492332
3937.93	0.491595
3947.57	0.493848
3957.21	0.494524
3966.86	0.493498
3976.5	0.494982
3986.14	0.495873
3995.78	0.496264
