Measurement: Infrared, Infrared Data Processed
Mineral: Albite
Rruff sample: R050402
Ideal chemistry: NaAlSi_3_O_8_
Locality: Urbano mine, Golconda District, Brazil
Source: Bob Downs
Description: Colorless tabular single crystals associated with fluorapatite R050401
Measured chemistry: Na_1.00_Al_1.00_Si_3.00_O_8_
x	intensity
399.193	0.244092
408.835	0.219736
418.477	0.222652
428.12	0.172495
437.762	0.114277
447.404	0.0747428
457.047	0.12172
466.689	0.134911
476.331	0.121503
485.974	0.0574184
495.616	0.0438315
505.258	0.0486323
514.901	0.0696765
524.543	0.146766
534.185	0.159398
543.828	0.0797622
553.47	0.0820329
563.112	0.121416
572.755	0.189251
582.397	0.234151
592.039	0.218328
601.682	0.1655
611.324	0.135806
620.966	0.073657
630.609	0.0508181
640.251	0.0730716
649.893	0.136567
659.536	0.0593919
669.178	0.0359272
678.82	0.0339179
688.463	0.0364203
698.105	0.0438297
707.747	0.0602091
717.39	0.106815
727.032	0.115165
736.674	0.107758
746.317	0.132454
755.959	0.11639
765.601	0.109521
775.244	0.0567177
784.886	0.101741
794.528	0.0560759
804.171	0.0299605
813.813	0.0260322
823.455	0.0254416
833.098	0.0265558
842.74	0.0297455
852.382	0.033953
862.025	0.0406142
871.667	0.0523489
881.309	0.0579909
890.952	0.0708566
900.594	0.0889042
910.236	0.112198
919.879	0.146114
929.521	0.194044
939.163	0.25672
948.806	0.334167
958.448	0.423209
968.09	0.505583
977.733	0.558503
987.375	0.549938
997.017	0.497053
1006.66	0.437825
1016.3	0.398687
1025.94	0.382176
1035.59	0.351427
1045.23	0.266369
1054.87	0.205026
1064.51	0.181422
1074.16	0.168566
1083.8	0.173478
1093.44	0.221176
1103.08	0.209519
1112.72	0.186248
1122.37	0.171219
1132.01	0.18261
1141.65	0.201535
1151.3	0.202556
1160.94	0.174021
1170.58	0.133687
1180.22	0.099775
1189.86	0.0706936
1199.51	0.0472109
1209.15	0.0319469
1218.79	0.0206311
1228.43	0.0140109
1238.08	0.0100024
1247.72	0.00762434
1257.36	0.00580418
1267	0.00467092
1276.64	0.0040085
1286.29	0.00293577
1295.93	0.00217698
1305.57	0.00209483
1315.21	0.00213348
1324.86	0.00133455
1334.5	0.00127256
1344.14	0.00110212
1353.78	0.00148608
1363.43	0.00122757
1373.07	0.0010716
1382.71	0.00110088
1392.35	0.00152037
1401.99	0.00182646
1411.64	0.00173057
1421.28	0.00292876
1430.92	0.00329419
1440.57	0.00498486
1450.21	0.00681338
1459.85	0.00713555
1469.49	0.00771614
1479.13	0.00659412
1488.78	0.00543742
1498.42	0.00466829
1508.06	0.00448291
1517.7	0.00267004
1527.35	0.00243172
1536.99	0.00226529
1546.63	0.00225477
1556.27	0.00216287
1565.91	0.00174605
1575.56	0.00149364
1585.2	0.00205908
1594.84	0.00203466
1604.48	0.0022774
1614.13	0.00263774
1623.77	0.0028359
1633.41	0.00265073
1643.05	0.00294561
1652.7	0.00192462
1662.34	0.00281329
1671.98	0.00171203
1681.62	0.00137142
1691.27	0.000864117
1700.91	0.000753495
1710.55	-0.00041329
1720.19	0.000313549
1729.84	-0.000563209
1739.48	-0.00223693
1749.12	-0.00244468
1758.76	-0.000345725
1768.4	0.00101435
1778.05	-0.000621115
1787.69	0.000804806
1797.33	0.000193988
1806.97	0.000386631
1816.62	-0.000783609
1826.26	-0.000991946
1835.9	-0.00157463
1845.54	-0.00172637
1855.18	-0.0016857
1864.83	-0.001516
1874.47	-0.00177747
1884.11	-0.00404973
1893.75	-0.00332486
1903.4	-0.00382286
1913.04	-0.00467188
1922.68	-0.00521365
1932.32	-0.00578001
1941.97	-0.00623524
1951.61	-0.00808892
1961.25	-0.0111329
1970.89	-0.0101239
1980.54	-0.00628553
1990.18	-0.0105346
1999.82	-0.0118789
2009.46	-0.0128281
2019.11	-0.0141484
2028.75	-0.0107389
2038.39	-0.013026
2048.03	-0.0091381
2057.67	-0.0086598
2067.32	-0.00640133
2076.96	-0.00581752
2086.6	-0.00768466
2096.24	-0.00733889
2105.89	-0.00606748
2115.53	-0.00361837
2125.17	-0.00514974
2134.81	-0.0106895
2144.45	-0.00915428
2154.1	-0.0140944
2163.74	-0.00947589
2173.38	-0.0103259
2183.02	-0.00993084
2192.67	-0.0116913
2202.31	-0.00924661
2211.95	-0.00767594
2221.59	-0.00878904
2231.24	-0.00867267
2240.88	-0.00705405
2250.52	-0.00664901
2260.16	-0.00551111
2269.8	-0.0048789
2279.45	-0.00460836
2289.09	-0.00464491
2298.73	-0.0039035
2308.38	-0.00362415
2318.02	-0.00415442
2327.66	-0.00395031
2337.3	-0.00397987
2346.94	-0.00543161
2356.59	-0.00336858
2366.23	-0.00443288
2375.87	-0.00445651
2385.51	-0.00342522
2395.16	-0.00364288
2404.8	-0.00427392
2414.44	-0.00200513
2424.08	-0.0030173
2433.72	-0.00232525
2443.37	-0.00316061
2453.01	-0.00217173
2462.65	-0.00298329
2472.29	-0.00221783
2481.94	-0.00194495
2491.58	-0.00250836
2501.22	-0.00259438
2510.86	-0.00397206
2520.51	-0.00241833
2530.15	-0.00332318
2539.79	-0.00175699
2549.43	-0.00349546
2559.07	-0.00207836
2568.72	-0.00290772
2578.36	-0.00370543
2588	-0.00218478
2597.64	-0.00339896
2607.29	-0.00305193
2616.93	-0.00140071
2626.57	-0.00221326
2636.21	-0.00284402
2645.86	-0.00182695
2655.5	-0.00333842
2665.14	-0.00387662
2674.78	-0.00362112
2684.43	-0.00318507
2694.07	-0.00314656
2703.71	-0.00325359
2713.35	-0.00299919
2722.99	-0.00332364
2732.64	-0.00217884
2742.28	-0.00428698
2751.92	-0.00293686
2761.56	-0.00425691
2771.21	-0.00317006
2780.85	-0.00306292
2790.49	-0.00359633
2800.13	-0.00360919
2809.78	-0.00282591
2819.42	-0.0031197
2829.06	-0.00231264
2838.7	-0.00339515
2848.34	-0.00316059
2857.99	-0.00375649
2867.63	-0.0041806
2877.27	-0.00529626
2886.91	-0.0055449
2896.56	-0.00542055
2906.2	-0.00563349
2915.84	-0.00379106
2925.48	-0.00386139
2935.13	-0.00377609
2944.77	-0.00287714
2954.41	-0.00492927
2964.05	-0.00353695
2973.7	-0.00626273
2983.34	-0.00496146
2992.98	-0.0042732
3002.62	-0.00366632
3012.26	-0.00448059
3021.91	-0.00239605
3031.55	-0.00199678
3041.19	-0.00260202
3050.83	-0.0019162
3060.48	-0.00117282
3070.12	-0.00360508
3079.76	-0.00280932
3089.4	-2.25605e-05
3099.05	-0.00331839
3108.69	-0.00224827
3118.33	-0.00118124
3127.97	0.0012273
3137.61	0.00202848
3147.26	0.000100216
3156.9	-0.00111177
3166.54	0.00051641
3176.18	0.00206319
3185.83	0.000236473
3195.47	-0.000403446
3205.11	4.06745e-05
3214.75	0.00077396
3224.4	-0.00180844
3234.04	-0.00178367
3243.68	-0.00149334
3253.32	-0.000693603
3262.97	-0.00252343
3272.61	0.00138864
3282.25	-0.000229344
3291.89	-0.00121239
3301.53	-0.000164299
3311.18	-0.00109123
3320.82	-0.0008437
3330.46	0.000870274
3340.1	-0.00250553
3349.75	0.00040162
3359.39	-0.00126527
3369.03	0.00191279
3378.67	-0.00177332
3388.32	-0.00154232
3397.96	0.00127167
3407.6	-0.00310328
3417.24	0.00291041
3426.89	-0.00179137
3436.53	0.00206365
3446.17	-0.00151698
3455.81	0.000147261
3465.45	0.00107296
3475.1	0.00101165
3484.74	-0.000791411
3494.38	-0.000112653
3504.02	0.00110198
3513.67	-0.00169265
3523.31	-0.000681502
3532.95	-0.00319338
3542.59	-4.16695e-05
3552.24	-0.00159495
3561.88	-0.00270229
3571.52	0.0016138
3581.16	-0.00284354
3590.8	-0.00242978
3600.45	-0.00397459
3610.09	-0.00328435
3619.73	-0.00190978
3629.37	-0.00691527
3639.02	-0.00456598
3648.66	-0.00762785
3658.3	-0.00534371
3667.94	-0.00650056
3677.59	-0.00722064
3687.23	-0.0048858
3696.87	-0.0109421
3706.51	-0.00645455
3716.16	-0.00535544
3725.8	-0.0103519
3735.44	-0.00460106
3745.08	-0.00195473
3754.72	-0.00264801
3764.37	-0.00868768
3774.01	-0.00232387
3783.65	-0.00646838
3793.29	-0.0080987
3802.94	-0.0070106
3812.58	-0.00924647
3822.22	-0.00512149
3831.86	-0.00555813
3841.51	-0.00589241
3851.15	-0.00824939
3860.79	-0.0114353
3870.43	-0.00840886
3880.07	-0.00550453
3889.72	-0.0110363
3899.36	-0.0119094
3909	-0.0112267
3918.64	-0.00490492
3928.29	-0.0079229
3937.93	-0.0107778
3947.57	-0.00660725
3957.21	-0.0139944
3966.86	-0.00974336
3976.5	-0.0117874
3986.14	-0.0118215
3995.78	-0.0102126
