Measurement: Infrared, Infrared Data Processed
Mineral: Allactite
Rruff sample: R070175
Ideal chemistry: Mn^2+^_7_(As^5+^O_4_)_2_(OH)_8_
Locality: Langban, Filipstad, Varmland, Sweden
Source: Michael Scott
Description: Brownish red vitreous massive
Measured chemistry: (Mn_6.85_Mg_0.10_Ca_0.05_)_Σ=7_(As_1.00_O_4_)_2_(OH)_8_ ;to (Mn_6.75_Mg_0.19_Ca_0.16_)_Σ=7_(As_1.00_O_4_)_2_(OH)_8_
x	intensity
374.123	0.161575
383.765	0.124721
393.407	0.142962
403.05	0.195041
412.692	0.203429
422.334	0.205145
431.976	0.184628
441.619	0.147504
451.261	0.101001
460.904	0.0697563
470.546	0.0595103
480.188	0.0503091
489.83	0.0355466
499.473	0.0269605
509.115	0.0235803
518.758	0.0223698
528.4	0.0230175
538.042	0.024027
547.684	0.0266327
557.327	0.0302835
566.969	0.035693
576.611	0.0450295
586.254	0.0539782
595.896	0.0617005
605.538	0.0790379
615.181	0.106084
624.823	0.130823
634.466	0.125452
644.108	0.117748
653.75	0.117462
663.393	0.107417
673.035	0.090885
682.677	0.0822896
692.319	0.085921
701.962	0.0999803
711.604	0.123663
721.246	0.156847
730.889	0.193115
740.531	0.223539
750.173	0.233962
759.816	0.197799
769.458	0.140827
779.101	0.0966136
788.743	0.0964157
798.385	0.140848
808.028	0.220172
817.67	0.234151
827.312	0.216817
836.955	0.201451
846.597	0.19788
856.239	0.227172
865.881	0.179111
875.524	0.142606
885.166	0.101469
894.808	0.0602533
904.451	0.0411602
914.093	0.0393952
923.736	0.0327119
933.378	0.0241497
943.02	0.0187583
952.663	0.0155775
962.305	0.0140868
971.947	0.0141489
981.59	0.0157309
991.232	0.0204668
1000.87	0.0286437
1010.52	0.0318088
1020.16	0.0237134
1029.8	0.0167712
1039.44	0.0128385
1049.09	0.0111328
1058.73	0.0102016
1068.37	0.00968734
1078.01	0.00945093
1087.65	0.00898257
1097.3	0.00867868
1106.94	0.00875334
1116.58	0.00872128
1126.22	0.00870188
1135.87	0.00875202
1145.51	0.00881391
1155.15	0.009005
1164.79	0.00921154
1174.44	0.00967983
1184.08	0.00965615
1193.72	0.00983983
1203.36	0.0102103
1213.01	0.0104554
1222.65	0.0105857
1232.29	0.0112323
1241.93	0.0116064
1251.58	0.0120584
1261.22	0.0125068
1270.86	0.0127642
1280.5	0.0129587
1290.14	0.0133751
1299.79	0.0136543
1309.43	0.014139
1319.07	0.0141484
1328.71	0.0146159
1338.36	0.0148437
1348	0.0152479
1357.64	0.0152394
1367.28	0.0157299
1376.92	0.0161404
1386.57	0.0162904
1396.21	0.0168823
1405.85	0.0172213
1415.49	0.0174581
1425.14	0.0178381
1434.78	0.0181996
1444.42	0.0183499
1454.06	0.0184978
1463.71	0.0186586
1473.35	0.0188331
1482.99	0.0190291
1492.63	0.0193712
1502.28	0.0198031
1511.92	0.0200747
1521.56	0.0206897
1531.2	0.0207174
1540.85	0.0211715
1550.49	0.0212956
1560.13	0.0217498
1569.77	0.021972
1579.41	0.0220998
1589.06	0.0224399
1598.7	0.0227123
1608.34	0.0230781
1617.98	0.0229956
1627.63	0.0229827
1637.27	0.0232166
1646.91	0.0234246
1656.55	0.0234757
1666.19	0.0237356
1675.84	0.0237589
1685.48	0.0239179
1695.12	0.0244013
1704.77	0.024415
1714.41	0.0248356
1724.05	0.0250885
1733.69	0.0253564
1743.33	0.0243783
1752.98	0.023707
1762.62	0.0241154
1772.26	0.0244775
1781.9	0.0247578
1791.55	0.02533
1801.19	0.0253994
1810.83	0.0255371
1820.47	0.0259164
1830.12	0.0256421
1839.76	0.0253083
1849.4	0.0250705
1859.04	0.0255914
1868.68	0.0253698
1878.33	0.0254322
1887.97	0.0260482
1897.61	0.0254641
1907.25	0.0257551
1916.9	0.0255304
1926.54	0.0254542
1936.18	0.0257475
1945.82	0.0248169
1955.46	0.0254688
1965.11	0.0258137
1974.75	0.026242
1984.39	0.0275886
1994.04	0.027437
2003.68	0.0261757
2013.32	0.0276914
2022.96	0.0266653
2032.6	0.0272578
2042.25	0.0283858
2051.89	0.0296801
2061.53	0.0287935
2071.17	0.0294559
2080.82	0.0305257
2090.46	0.0286286
2100.1	0.0289137
2109.74	0.0291296
2119.39	0.0287171
2129.03	0.0258835
2138.67	0.0265761
2148.31	0.0272694
2157.95	0.0243157
2167.6	0.0318716
2177.24	0.0302143
2186.88	0.032316
2196.52	0.0322364
2206.17	0.0324668
2215.81	0.0325315
2225.45	0.033159
2235.09	0.032421
2244.74	0.0333281
2254.38	0.0332823
2264.02	0.0335196
2273.66	0.0353846
2283.3	0.035719
2292.95	0.0350886
2302.59	0.0350347
2312.23	0.0350554
2321.87	0.0374777
2331.52	0.0343697
2341.16	0.033943
2350.8	0.0338063
2360.44	0.033849
2370.09	0.0331774
2379.73	0.0334438
2389.37	0.0335924
2399.01	0.0333468
2408.66	0.0341916
2418.3	0.0347588
2427.94	0.0347601
2437.58	0.0354839
2447.22	0.0354241
2456.87	0.0360647
2466.51	0.0354057
2476.15	0.0355173
2485.79	0.0358791
2495.44	0.0363844
2505.08	0.036399
2514.72	0.0364207
2524.36	0.0372849
2534.01	0.0373794
2543.65	0.0376431
2553.29	0.0377621
2562.93	0.0381096
2572.57	0.0385904
2582.22	0.0397351
2591.86	0.0393872
2601.5	0.0398488
2611.14	0.040369
2620.79	0.0405948
2630.43	0.0414619
2640.07	0.0413296
2649.71	0.0408417
2659.36	0.0407481
2669	0.039847
2678.64	0.0400269
2688.28	0.039993
2697.93	0.0404719
2707.57	0.0403304
2717.21	0.0406033
2726.85	0.0410215
2736.49	0.0411509
2746.14	0.0416464
2755.78	0.0417232
2765.42	0.0420488
2775.06	0.0424019
2784.71	0.0428134
2794.35	0.042542
2803.99	0.0428952
2813.63	0.0431838
2823.28	0.0438989
2832.92	0.0448284
2842.56	0.0446797
2852.2	0.0451652
2861.84	0.0456626
2871.49	0.0457778
2881.13	0.0459373
2890.77	0.0465957
2900.41	0.0472332
2910.06	0.0479746
2919.7	0.0482772
2929.34	0.0482846
2938.98	0.0480118
2948.62	0.048431
2958.27	0.0491509
2967.91	0.0487681
2977.55	0.0482063
2987.2	0.0483657
2996.84	0.049182
3006.48	0.0493521
3016.12	0.0504084
3025.76	0.0506355
3035.41	0.0512479
3045.05	0.0528149
3054.69	0.052702
3064.33	0.0538785
3073.98	0.0547571
3083.62	0.0554367
3093.26	0.0566851
3102.9	0.0574778
3112.55	0.058131
3122.19	0.0588416
3131.83	0.060608
3141.47	0.0609361
3151.11	0.062855
3160.76	0.0650171
3170.4	0.0653713
3180.04	0.067823
3189.68	0.0696106
3199.33	0.0723238
3208.97	0.0747518
3218.61	0.077387
3228.25	0.0822092
3237.9	0.0864197
3247.54	0.0896556
3257.18	0.0954637
3266.82	0.103625
3276.47	0.111242
3286.11	0.115765
3295.75	0.106399
3305.39	0.092026
3315.03	0.0838403
3324.68	0.0786339
3334.32	0.0758498
3343.96	0.0749915
3353.6	0.0743922
3363.25	0.07576
3372.89	0.0762637
3382.53	0.0771975
3392.17	0.0783019
3401.82	0.0806941
3411.46	0.082989
3421.1	0.087714
3430.74	0.0947273
3440.39	0.101586
3450.03	0.102284
3459.67	0.102615
3469.31	0.109339
3478.95	0.120244
3488.6	0.115353
3498.24	0.0834951
3507.88	0.0641118
3517.52	0.0572624
3527.17	0.0540319
3536.81	0.0535135
3546.45	0.062257
3556.09	0.0988865
3565.74	0.067996
3575.38	0.0364465
3585.02	0.0342061
3594.66	0.0346151
3604.3	0.0350737
3613.95	0.0351852
3623.59	0.035561
3633.23	0.0366944
3642.87	0.0374962
3652.52	0.0379635
3662.16	0.0387433
3671.8	0.0394566
3681.44	0.040272
3691.09	0.0392034
3700.73	0.0398994
3710.37	0.0405425
3720.01	0.0402932
3729.66	0.0415513
3739.3	0.0410596
3748.94	0.0428453
3758.58	0.0423063
3768.22	0.0422276
3777.87	0.0428446
3787.51	0.0438973
3797.15	0.0425986
3806.79	0.043859
3816.44	0.0429675
3826.08	0.0433642
3835.72	0.0446584
3845.36	0.0444458
3855.01	0.0452101
3864.65	0.0444354
3874.29	0.0431306
3883.93	0.0441759
3893.57	0.0444988
3903.22	0.0443836
3912.86	0.0450486
3922.5	0.0441108
3932.14	0.0455512
3941.79	0.0455729
3951.43	0.0443002
3961.07	0.0446129
3970.71	0.0455047
3980.36	0.0450003
3990	0.0452405
3999.64	0.0463588
