Measurement: Infrared, Infrared Data Processed
Mineral: Alunogen
Rruff sample: R060015
Ideal chemistry: Al_2_(S^6+^O_4_)_3_(H_2_O)_12_5H_2_O
Locality: Saxony, Germany
Source: American Museum of Natural History
Description: Colorless compact mass of fibers, along with some sprays of acicular single crystals
Measured chemistry: (Al_1.77_Fe^3+^_0.23_)_Σ=2_(S_1.00_O_4_)_3_·17H_2_O
x	intensity
399.193	0.129069
408.835	0.133274
418.477	0.145272
428.12	0.159617
437.762	0.164871
447.404	0.170447
457.047	0.175707
466.689	0.186378
476.331	0.184814
485.974	0.191814
495.616	0.198324
505.258	0.203775
514.901	0.211355
524.543	0.220111
534.185	0.227707
543.828	0.239112
553.47	0.258074
563.112	0.268851
572.755	0.277249
582.397	0.273114
592.039	0.264354
601.682	0.255892
611.324	0.243253
620.966	0.228238
630.609	0.214019
640.251	0.201331
649.893	0.192454
659.536	0.191384
669.178	0.189801
678.82	0.188296
688.463	0.187423
698.105	0.18593
707.747	0.183883
717.39	0.17805
727.032	0.171306
736.674	0.162418
746.317	0.154519
755.959	0.146886
765.601	0.140852
775.244	0.136167
784.886	0.133882
794.528	0.133575
804.171	0.135301
813.813	0.13798
823.455	0.140806
833.098	0.144563
842.74	0.14812
852.382	0.150073
862.025	0.15367
871.667	0.158696
881.309	0.162766
890.952	0.166135
900.594	0.169439
910.236	0.176434
919.879	0.186729
929.521	0.200248
939.163	0.211675
948.806	0.218315
958.448	0.215263
968.09	0.209709
977.733	0.21836
987.375	0.238526
997.017	0.234036
1006.66	0.238028
1016.3	0.266703
1025.94	0.31332
1035.59	0.3776
1045.23	0.447434
1054.87	0.485883
1064.51	0.496293
1074.16	0.47851
1083.8	0.43531
1093.44	0.389497
1103.08	0.367534
1112.72	0.316875
1122.37	0.25026
1132.01	0.203404
1141.65	0.168166
1151.3	0.139154
1160.94	0.115487
1170.58	0.0949544
1180.22	0.0780641
1189.86	0.0687799
1199.51	0.0614124
1209.15	0.0554359
1218.79	0.0496402
1228.43	0.042829
1238.08	0.035731
1247.72	0.0292123
1257.36	0.0238639
1267	0.0211214
1276.64	0.0205856
1286.29	0.0197527
1295.93	0.0203723
1305.57	0.0210721
1315.21	0.0214506
1324.86	0.0223832
1334.5	0.0239502
1344.14	0.0243215
1353.78	0.0256532
1363.43	0.0267216
1373.07	0.0281548
1382.71	0.0298666
1392.35	0.0312001
1401.99	0.0329945
1411.64	0.0348504
1421.28	0.0374213
1430.92	0.0390369
1440.57	0.039794
1450.21	0.0411483
1459.85	0.0427643
1469.49	0.0446872
1479.13	0.0463329
1488.78	0.0486397
1498.42	0.0506889
1508.06	0.0534682
1517.7	0.0565197
1527.35	0.0589063
1536.99	0.0618983
1546.63	0.0649348
1556.27	0.068699
1565.91	0.0720616
1575.56	0.0765422
1585.2	0.0818224
1594.84	0.0883828
1604.48	0.0955248
1614.13	0.102261
1623.77	0.107899
1633.41	0.111285
1643.05	0.11122
1652.7	0.10967
1662.34	0.104731
1671.98	0.0965136
1681.62	0.0857523
1691.27	0.0739496
1700.91	0.0637887
1710.55	0.0549662
1720.19	0.0473742
1729.84	0.0418375
1739.48	0.037894
1749.12	0.0354261
1758.76	0.0342519
1768.4	0.0325913
1778.05	0.0315637
1787.69	0.0304499
1797.33	0.0293755
1806.97	0.0288813
1816.62	0.0278443
1826.26	0.0283438
1835.9	0.0285148
1845.54	0.0276719
1855.18	0.0274052
1864.83	0.0275062
1874.47	0.0280698
1884.11	0.0273193
1893.75	0.0248916
1903.4	0.0256741
1913.04	0.0254494
1922.68	0.025071
1932.32	0.0237449
1941.97	0.0220921
1951.61	0.0219855
1961.25	0.0249766
1970.89	0.0187486
1980.54	0.0239382
1990.18	0.0189891
1999.82	0.0209283
2009.46	0.0192655
2019.11	0.0220246
2028.75	0.0240314
2038.39	0.0222566
2048.03	0.0287332
2057.67	0.0314377
2067.32	0.0281723
2076.96	0.0307944
2086.6	0.0310069
2096.24	0.0311945
2105.89	0.0332925
2115.53	0.03253
2125.17	0.029564
2134.81	0.0260559
2144.45	0.0295971
2154.1	0.0254092
2163.74	0.0319915
2173.38	0.036529
2183.02	0.0367938
2192.67	0.0371179
2202.31	0.0404518
2211.95	0.0434124
2221.59	0.0501741
2231.24	0.0489915
2240.88	0.0528785
2250.52	0.057289
2260.16	0.0614022
2269.8	0.0608896
2279.45	0.0687057
2289.09	0.0745561
2298.73	0.0757792
2308.38	0.079723
2318.02	0.0853756
2327.66	0.0889173
2337.3	0.0927344
2346.94	0.0974168
2356.59	0.101066
2366.23	0.104233
2375.87	0.108588
2385.51	0.110853
2395.16	0.116184
2404.8	0.12147
2414.44	0.125181
2424.08	0.128522
2433.72	0.131702
2443.37	0.137734
2453.01	0.140501
2462.65	0.141959
2472.29	0.144077
2481.94	0.149467
2491.58	0.149341
2501.22	0.152293
2510.86	0.153211
2520.51	0.156724
2530.15	0.156507
2539.79	0.15708
2549.43	0.157299
2559.07	0.154602
2568.72	0.155327
2578.36	0.156687
2588	0.156487
2597.64	0.159673
2607.29	0.159041
2616.93	0.16163
2626.57	0.165405
2636.21	0.169744
2645.86	0.172945
2655.5	0.178923
2665.14	0.183304
2674.78	0.188689
2684.43	0.194843
2694.07	0.203698
2703.71	0.210381
2713.35	0.21929
2722.99	0.227619
2732.64	0.238201
2742.28	0.247268
2751.92	0.257635
2761.56	0.267818
2771.21	0.278481
2780.85	0.290724
2790.49	0.30126
2800.13	0.309894
2809.78	0.321259
2819.42	0.332409
2829.06	0.341464
2838.7	0.352369
2848.34	0.36529
2857.99	0.373552
2867.63	0.382861
2877.27	0.391081
2886.91	0.402259
2896.56	0.409055
2906.2	0.412747
2915.84	0.417334
2925.48	0.42486
2935.13	0.426723
2944.77	0.428837
2954.41	0.434499
2964.05	0.432108
2973.7	0.432333
2983.34	0.431898
2992.98	0.431211
3002.62	0.428534
3012.26	0.425588
3021.91	0.420831
3031.55	0.418358
3041.19	0.413847
3050.83	0.408201
3060.48	0.402021
3070.12	0.39611
3079.76	0.389888
3089.4	0.384129
3099.05	0.376078
3108.69	0.368841
3118.33	0.360092
3127.97	0.358696
3137.61	0.347888
3147.26	0.342032
3156.9	0.340013
3166.54	0.3331
3176.18	0.327601
3185.83	0.321202
3195.47	0.318622
3205.11	0.310536
3214.75	0.304896
3224.4	0.299782
3234.04	0.29682
3243.68	0.291581
3253.32	0.284577
3262.97	0.276453
3272.61	0.269415
3282.25	0.265918
3291.89	0.255688
3301.53	0.247018
3311.18	0.2389
3320.82	0.234958
3330.46	0.227113
3340.1	0.225527
3349.75	0.218614
3359.39	0.207138
3369.03	0.20331
3378.67	0.195894
3388.32	0.190214
3397.96	0.180188
3407.6	0.17694
3417.24	0.166535
3426.89	0.163405
3436.53	0.152242
3446.17	0.146517
3455.81	0.137949
3465.45	0.133142
3475.1	0.123604
3484.74	0.121647
3494.38	0.113075
3504.02	0.106882
3513.67	0.0998685
3523.31	0.0891382
3532.95	0.0849855
3542.59	0.0788575
3552.24	0.0690413
3561.88	0.0622611
3571.52	0.0599118
3581.16	0.047609
3590.8	0.0385812
3600.45	0.0323168
3610.09	0.0194458
3619.73	0.0144996
3629.37	0.00795476
3639.02	-0.000863927
3648.66	-0.00343718
3658.3	-0.00382008
3667.94	-0.00742261
3677.59	-0.0097712
3687.23	-0.00821055
3696.87	-0.010848
3706.51	-0.0100989
3716.16	-0.0126584
3725.8	-0.0116158
3735.44	-0.0134747
3745.08	-0.0143
3754.72	-0.0119601
3764.37	-0.0142372
3774.01	-0.0126606
3783.65	-0.0173577
3793.29	-0.0133666
3802.94	-0.0128429
3812.58	-0.013807
3822.22	-0.0128685
3831.86	-0.011227
3841.51	-0.0129643
3851.15	-0.0105517
3860.79	-0.0153503
3870.43	-0.0110478
3880.07	-0.0114693
3889.72	-0.0158581
3899.36	-0.00894717
3909	-0.0170206
3918.64	-0.0123232
3928.29	-0.0150003
3937.93	-0.0138464
3947.57	-0.00925334
3957.21	-0.0147056
3966.86	-0.0165743
3976.5	-0.0157763
3986.14	-0.0176418
3995.78	-0.0122218
