Measurement: Infrared, Infrared Data Processed
Mineral: Amblygonite
Rruff sample: R040006
Ideal chemistry: LiAlPO_4_F
Locality: Pala, San Diego County, California, USA
Source: University of Arizona Mineral Museum
Description: Light gray coarsely crystalline massive
Measured chemistry: LiAl_1.00_(P_1.00_O_4_)(F_0.73_(OH)_0.27_)_Î£=1_; Li assumed by stoichiometry; OH estimated by charge balance
x	intensity
374.123	0.259689
383.765	0.227027
393.407	0.226289
403.05	0.229097
412.692	0.219123
422.334	0.196675
431.976	0.184961
441.619	0.188791
451.261	0.206069
460.904	0.2228
470.546	0.225402
480.188	0.215324
489.83	0.195149
499.473	0.17362
509.115	0.158797
518.758	0.147873
528.4	0.15489
538.042	0.152193
547.684	0.133249
557.327	0.117889
566.969	0.104703
576.611	0.103931
586.254	0.122077
595.896	0.12111
605.538	0.103637
615.181	0.0961784
624.823	0.0952877
634.466	0.0976488
644.108	0.0875712
653.75	0.0742189
663.393	0.0634214
673.035	0.0469445
682.677	0.0306876
692.319	0.0219149
701.962	0.0175802
711.604	0.0155672
721.246	0.0148394
730.889	0.0148841
740.531	0.0155636
750.173	0.0167456
759.816	0.0189518
769.458	0.0232351
779.101	0.0311669
788.743	0.0461136
798.385	0.066844
808.028	0.0859222
817.67	0.0912693
827.312	0.0782234
836.955	0.0513889
846.597	0.0295364
856.239	0.0213379
865.881	0.0200884
875.524	0.0209203
885.166	0.0231652
894.808	0.0262013
904.451	0.0301016
914.093	0.034647
923.736	0.0391495
933.378	0.045763
943.02	0.0549937
952.663	0.0677133
962.305	0.0849456
971.947	0.108496
981.59	0.141213
991.232	0.184497
1000.87	0.230111
1010.52	0.258292
1020.16	0.254551
1029.8	0.221128
1039.44	0.209575
1049.09	0.247783
1058.73	0.302099
1068.37	0.320669
1078.01	0.307461
1087.65	0.282002
1097.3	0.251789
1106.94	0.217898
1116.58	0.186502
1126.22	0.159692
1135.87	0.131869
1145.51	0.106333
1155.15	0.0887933
1164.79	0.0746643
1174.44	0.0640208
1184.08	0.0573746
1193.72	0.0526707
1203.36	0.0399042
1213.01	0.0235957
1222.65	0.0122764
1232.29	0.00721861
1241.93	0.00480794
1251.58	0.00327606
1261.22	0.00241909
1270.86	0.0016205
1280.5	0.00134301
1290.14	0.000888725
1299.79	0.000652211
1309.43	0.000641223
1319.07	0.000693508
1328.71	0.000350447
1338.36	0.000216803
1348	0.000167422
1357.64	0.00010045
1367.28	2.76856e-05
1376.92	0.000147581
1386.57	0.000148861
1396.21	0.000306352
1405.85	0.000510941
1415.49	0.000514318
1425.14	0.000820834
1434.78	0.000808992
1444.42	0.000617834
1454.06	0.000945533
1463.71	0.000879153
1473.35	0.00101187
1482.99	0.000466491
1492.63	0.000460203
1502.28	0.000462674
1511.92	0.000523294
1521.56	0.00086416
1531.2	0.000674623
1540.85	0.00136374
1550.49	0.00065123
1560.13	0.00196016
1569.77	0.00152185
1579.41	0.00190432
1589.06	0.00228384
1598.7	0.00273514
1608.34	0.0030402
1617.98	0.00319109
1627.63	0.00282925
1637.27	0.00265302
1646.91	0.00250905
1656.55	0.00177181
1666.19	0.00153852
1675.84	0.0012839
1685.48	0.00163378
1695.12	0.00155406
1704.77	0.00090223
1714.41	0.000710173
1724.05	0.000283396
1733.69	0.00118768
1743.33	-0.000432377
1752.98	-0.0003886
1762.62	-0.000213943
1772.26	2.5892e-05
1781.9	-0.000179962
1791.55	-0.000323074
1801.19	-0.000137783
1810.83	-0.000280194
1820.47	-0.000199978
1830.12	-0.000159321
1839.76	2.24058e-05
1849.4	-0.000354972
1859.04	-0.000180875
1868.68	-1.67348e-05
1878.33	-0.000215889
1887.97	0.00022491
1897.61	0.00037457
1907.25	0.000367696
1916.9	0.000779036
1926.54	-0.000290306
1936.18	0.000721514
1945.82	0.00031462
1955.46	-0.000176555
1965.11	0.00127549
1974.75	0.00198176
1984.39	0.000661115
1994.04	0.000863679
2003.68	-0.000837593
2013.32	-0.000990907
2022.96	-0.000170594
2032.6	0.000541251
2042.25	0.000828147
2051.89	0.00021531
2061.53	-0.000926084
2071.17	0.000324126
2080.82	-9.97611e-05
2090.46	-0.000531792
2100.1	5.85073e-05
2109.74	-6.48517e-05
2119.39	-0.00161904
2129.03	-0.00216152
2138.67	-0.00126954
2148.31	-0.00259412
2157.95	0.000148375
2167.6	0.000953015
2177.24	0.000163984
2186.88	-4.00492e-05
2196.52	0.000956191
2206.17	0.000633965
2215.81	0.00013268
2225.45	0.000616915
2235.09	0.000679173
2244.74	0.000978328
2254.38	0.000878401
2264.02	0.000592646
2273.66	0.00145881
2283.3	0.0021538
2292.95	0.00166261
2302.59	0.00154512
2312.23	0.00167906
2321.87	0.00290778
2331.52	0.00254589
2341.16	0.00212616
2350.8	0.00186678
2360.44	0.00295233
2370.09	0.00214516
2379.73	0.0012403
2389.37	0.00199186
2399.01	0.00156764
2408.66	0.0019235
2418.3	0.00106559
2427.94	0.00180948
2437.58	0.00121981
2447.22	0.00168158
2456.87	0.00167671
2466.51	0.00179036
2476.15	0.00186475
2485.79	0.00141197
2495.44	0.0018931
2505.08	0.00175177
2514.72	0.00115267
2524.36	0.00240475
2534.01	0.0017575
2543.65	0.00218483
2553.29	0.00196149
2562.93	0.00233647
2572.57	0.00220616
2582.22	0.00233234
2591.86	0.00235004
2601.5	0.00246729
2611.14	0.00217427
2620.79	0.00234173
2630.43	0.00235947
2640.07	0.00213793
2649.71	0.00226207
2659.36	0.00203915
2669	0.00145825
2678.64	0.00161367
2688.28	0.00176601
2697.93	0.00174384
2707.57	0.00202121
2717.21	0.00173101
2726.85	0.00183311
2736.49	0.00198496
2746.14	0.00216093
2755.78	0.00211882
2765.42	0.00217974
2775.06	0.0020522
2784.71	0.00216404
2794.35	0.00278057
2803.99	0.00251996
2813.63	0.00274331
2823.28	0.00257197
2832.92	0.0031778
2842.56	0.00353644
2852.2	0.00371316
2861.84	0.00332328
2871.49	0.00360553
2881.13	0.00391992
2890.77	0.00444478
2900.41	0.00451112
2910.06	0.00461545
2919.7	0.00514952
2929.34	0.00520338
2938.98	0.00435521
2948.62	0.00439001
2958.27	0.00569768
2967.91	0.0047696
2977.55	0.00443056
2987.2	0.00428018
2996.84	0.00491961
3006.48	0.00500547
3016.12	0.00487521
3025.76	0.00505395
3035.41	0.00504576
3045.05	0.00535364
3054.69	0.00615924
3064.33	0.00629644
3073.98	0.00655231
3083.62	0.00660196
3093.26	0.00654645
3102.9	0.00702122
3112.55	0.00756246
3122.19	0.00763619
3131.83	0.00751437
3141.47	0.00784237
3151.11	0.00750102
3160.76	0.00805948
3170.4	0.00841987
3180.04	0.00898492
3189.68	0.00893266
3199.33	0.00981299
3208.97	0.00990827
3218.61	0.009922
3228.25	0.0101999
3237.9	0.0105897
3247.54	0.0108321
3257.18	0.0115059
3266.82	0.0116875
3276.47	0.0129259
3286.11	0.0147427
3295.75	0.01666
3305.39	0.0205169
3315.03	0.0248926
3324.68	0.0305077
3334.32	0.0368898
3343.96	0.0435809
3353.6	0.0499143
3363.25	0.0532587
3372.89	0.0505868
3382.53	0.042416
3392.17	0.0326376
3401.82	0.0237863
3411.46	0.0156371
3421.1	0.0095741
3430.74	0.00499578
3440.39	0.00352952
3450.03	0.00340536
3459.67	0.00218546
3469.31	0.00226914
3478.95	0.00358779
3488.6	0.00253506
3498.24	0.00256471
3507.88	0.00174947
3517.52	0.00193024
3527.17	0.00144861
3536.81	0.00152552
3546.45	0.00146041
3556.09	0.000984229
3565.74	-0.000238553
3575.38	-0.00043626
3585.02	0.000486725
3594.66	-0.000420269
3604.3	-0.00120903
3613.95	-0.000136235
3623.59	0.000655846
3633.23	-0.000180133
3642.87	-0.00174405
3652.52	-0.00117794
3662.16	-0.00210822
3671.8	-0.00105503
3681.44	-7.9353e-05
3691.09	0.000789706
3700.73	-0.00195617
3710.37	-0.00143943
3720.01	-0.00273997
3729.66	-0.00281724
3739.3	-0.00241707
3748.94	-0.00138038
3758.58	-0.00297597
3768.22	-0.00195935
3777.87	-0.00414595
3787.51	-0.00419369
3797.15	-0.0036655
3806.79	-0.00236499
3816.44	-0.00211836
3826.08	-0.00450487
3835.72	-0.0024358
3845.36	-0.00368819
3855.01	-0.00262386
3864.65	-0.00394295
3874.29	-0.00374455
3883.93	-0.00372343
3893.57	-0.00392148
3903.22	-0.00403736
3912.86	-0.00277361
3922.5	-0.00387091
3932.14	-0.00318321
3941.79	-0.00492562
3951.43	-0.00412001
3961.07	-0.00442338
3970.71	-0.00367959
3980.36	-0.00434764
3990	-0.00360475
3999.64	-0.00513264
