Measurement: Infrared, Infrared Data Processed
Mineral: Andalusite
Rruff sample: R050626
Ideal chemistry: Al_2_SiO_5_
Locality: Minas Gerais, Brazil
Source: Gemological Center
Description: Grayish brown fragment
Measured chemistry: (Al_1.99_Fe^3+^_0.01_)_Î£=1_Si_1.00_O_5_
x	intensity
399.193	0.166278
408.835	0.176737
418.477	0.189947
428.12	0.195886
437.762	0.185731
447.404	0.169659
457.047	0.142737
466.689	0.0909828
476.331	0.0976311
485.974	0.102817
495.616	0.0963551
505.258	0.0846517
514.901	0.141402
524.543	0.117736
534.185	0.0992037
543.828	0.0906333
553.47	0.0989757
563.112	0.109201
572.755	0.120279
582.397	0.134442
592.039	0.140575
601.682	0.141353
611.324	0.141532
620.966	0.137211
630.609	0.132692
640.251	0.127996
649.893	0.122241
659.536	0.115095
669.178	0.116234
678.82	0.111986
688.463	0.105107
698.105	0.101232
707.747	0.0949716
717.39	0.0881579
727.032	0.0810194
736.674	0.0697688
746.317	0.0462046
755.959	0.0314184
765.601	0.036165
775.244	0.0530606
784.886	0.0309481
794.528	0.0284359
804.171	0.0304689
813.813	0.038343
823.455	0.0501486
833.098	0.06616
842.74	0.0866198
852.382	0.110988
862.025	0.135565
871.667	0.149485
881.309	0.155214
890.952	0.156857
900.594	0.152261
910.236	0.146266
919.879	0.158173
929.521	0.180112
939.163	0.165167
948.806	0.152095
958.448	0.142789
968.09	0.144603
977.733	0.128484
987.375	0.108199
997.017	0.0916691
1006.66	0.0767556
1016.3	0.0634169
1025.94	0.0525076
1035.59	0.0433425
1045.23	0.0349005
1054.87	0.0280125
1064.51	0.02158
1074.16	0.0167127
1083.8	0.0128461
1093.44	0.0102656
1103.08	0.00860352
1112.72	0.00798198
1122.37	0.00706909
1132.01	0.00603013
1141.65	0.00539176
1151.3	0.00445942
1160.94	0.00374962
1170.58	0.00373599
1180.22	0.00347758
1189.86	0.00318429
1199.51	0.00275225
1209.15	0.00264897
1218.79	0.00213461
1228.43	0.00242685
1238.08	0.00188763
1247.72	0.00166338
1257.36	0.00158865
1267	0.00195744
1276.64	0.00212238
1286.29	0.00170732
1295.93	0.0018169
1305.57	0.00168501
1315.21	0.00181531
1324.86	0.00205448
1334.5	0.00197
1344.14	0.00208032
1353.78	0.00156573
1363.43	0.00158721
1373.07	0.00154484
1382.71	0.00127702
1392.35	0.00176671
1401.99	0.00174726
1411.64	0.00231083
1421.28	0.00180001
1430.92	0.00225184
1440.57	0.00179519
1450.21	0.00162849
1459.85	0.00148052
1469.49	0.00166909
1479.13	0.00286925
1488.78	0.00278946
1498.42	0.0030712
1508.06	0.00283558
1517.7	0.00319183
1527.35	0.00353795
1536.99	0.00330695
1546.63	0.00364888
1556.27	0.00342442
1565.91	0.00379903
1575.56	0.00363819
1585.2	0.00380225
1594.84	0.00328232
1604.48	0.00332615
1614.13	0.00363451
1623.77	0.00358261
1633.41	0.00335028
1643.05	0.00387708
1652.7	0.0033587
1662.34	0.00330248
1671.98	0.00387432
1681.62	0.00366294
1691.27	0.00337853
1700.91	0.00266557
1710.55	0.00138308
1720.19	0.00186304
1729.84	0.00137232
1739.48	0.000253871
1749.12	0.000362424
1758.76	0.00279549
1768.4	0.00312403
1778.05	0.00316455
1787.69	0.00295591
1797.33	0.00377811
1806.97	0.0044195
1816.62	0.00341605
1826.26	0.0033886
1835.9	0.00344816
1845.54	0.00369587
1855.18	0.00327753
1864.83	0.00328563
1874.47	0.00321931
1884.11	0.00291891
1893.75	0.0031335
1903.4	0.00378867
1913.04	0.0027511
1922.68	0.00152971
1932.32	0.00151089
1941.97	-0.00026847
1951.61	0.00154081
1961.25	0.000819324
1970.89	0.000805573
1980.54	0.00476877
1990.18	0.0018189
1999.82	0.00141094
2009.46	0.00127744
2019.11	0.00280174
2028.75	0.00402345
2038.39	0.00330706
2048.03	0.00457305
2057.67	0.00473309
2067.32	0.00446038
2076.96	0.00537844
2086.6	0.00450741
2096.24	0.00461033
2105.89	0.00543664
2115.53	0.0059195
2125.17	0.00459391
2134.81	0.00324676
2144.45	0.00351166
2154.1	0.00251131
2163.74	0.00589206
2173.38	0.00973243
2183.02	0.00679475
2192.67	0.00685008
2202.31	0.00686315
2211.95	0.0106267
2221.59	0.00844403
2231.24	0.00834637
2240.88	0.00815203
2250.52	0.00709557
2260.16	0.00840019
2269.8	0.00840842
2279.45	0.0091253
2289.09	0.00965286
2298.73	0.00804518
2308.38	0.00876554
2318.02	0.00957927
2327.66	0.00907314
2337.3	0.00880961
2346.94	0.00807775
2356.59	0.00896043
2366.23	0.00755175
2375.87	0.00805766
2385.51	0.00764499
2395.16	0.00670121
2404.8	0.00798151
2414.44	0.00776784
2424.08	0.00834252
2433.72	0.00861998
2443.37	0.00865617
2453.01	0.00852924
2462.65	0.00933771
2472.29	0.00739747
2481.94	0.00957527
2491.58	0.00808795
2501.22	0.00662084
2510.86	0.00642248
2520.51	0.00913466
2530.15	0.0104942
2539.79	0.00816434
2549.43	0.00840036
2559.07	0.00879445
2568.72	0.00886499
2578.36	0.00835993
2588	0.00867114
2597.64	0.00899744
2607.29	0.0101066
2616.93	0.00919299
2626.57	0.00898325
2636.21	0.00869
2645.86	0.00906785
2655.5	0.00931881
2665.14	0.00920016
2674.78	0.0092925
2684.43	0.00830064
2694.07	0.00847018
2703.71	0.00796014
2713.35	0.010554
2722.99	0.00960856
2732.64	0.00909219
2742.28	0.00893095
2751.92	0.00784581
2761.56	0.0105741
2771.21	0.00945723
2780.85	0.00944884
2790.49	0.00844057
2800.13	0.00958171
2809.78	0.0107234
2819.42	0.00857625
2829.06	0.0101052
2838.7	0.0101908
2848.34	0.00957274
2857.99	0.00953097
2867.63	0.00950984
2877.27	0.00909497
2886.91	0.00933161
2896.56	0.00982511
2906.2	0.00774934
2915.84	0.0118794
2925.48	0.00898876
2935.13	0.00908996
2944.77	0.00921179
2954.41	0.00977503
2964.05	0.0097496
2973.7	0.00923743
2983.34	0.0104841
2992.98	0.00956351
3002.62	0.0104449
3012.26	0.0101783
3021.91	0.0118463
3031.55	0.0107241
3041.19	0.0111464
3050.83	0.00970972
3060.48	0.0106985
3070.12	0.0103761
3079.76	0.0106861
3089.4	0.0114477
3099.05	0.0119837
3108.69	0.0113642
3118.33	0.00944925
3127.97	0.013653
3137.61	0.0100617
3147.26	0.010783
3156.9	0.012223
3166.54	0.012928
3176.18	0.00994048
3185.83	0.0114772
3195.47	0.0114409
3205.11	0.0116854
3214.75	0.0104069
3224.4	0.0117922
3234.04	0.0141997
3243.68	0.0113173
3253.32	0.0112211
3262.97	0.0151368
3272.61	0.0119199
3282.25	0.0120927
3291.89	0.0140964
3301.53	0.0127597
3311.18	0.0108118
3320.82	0.0127172
3330.46	0.0129496
3340.1	0.0110246
3349.75	0.0133861
3359.39	0.0126112
3369.03	0.014881
3378.67	0.0119595
3388.32	0.013993
3397.96	0.00940648
3407.6	0.0125221
3417.24	0.0103879
3426.89	0.0144508
3436.53	0.0117319
3446.17	0.0131628
3455.81	0.010184
3465.45	0.0113846
3475.1	0.0108795
3484.74	0.00879391
3494.38	0.0151288
3504.02	0.0131828
3513.67	0.0137951
3523.31	0.0116791
3532.95	0.0149237
3542.59	0.0131247
3552.24	0.0113645
3561.88	0.0154275
3571.52	0.00880665
3581.16	0.0155825
3590.8	0.0137656
3600.45	0.0109087
3610.09	0.0163739
3619.73	0.0110803
3629.37	0.014885
3639.02	0.0135484
3648.66	0.0154323
3658.3	0.014807
3667.94	0.0139613
3677.59	0.0127913
3687.23	0.0137625
3696.87	0.014326
3706.51	0.0123077
3716.16	0.0162178
3725.8	0.0149222
3735.44	0.0118172
3745.08	0.0128218
3754.72	0.0125369
3764.37	0.0149036
3774.01	0.0131457
3783.65	0.0133058
3793.29	0.013124
3802.94	0.0161147
3812.58	0.0169839
3822.22	0.0173288
3831.86	0.0151639
3841.51	0.0149837
3851.15	0.0147694
3860.79	0.0129194
3870.43	0.0119698
3880.07	0.0109255
3889.72	0.0146038
3899.36	0.0147993
3909	0.0158144
3918.64	0.0168753
3928.29	0.0184112
3937.93	0.0156909
3947.57	0.0157238
3957.21	0.0140804
3966.86	0.0187642
3976.5	0.0170178
3986.14	0.0127044
3995.78	0.011976
