Measurement: Infrared, Infrared Data Processed
Mineral: Andradite
Rruff sample: R050256
Ideal chemistry: Ca_3_Fe^3+^_2_(SiO_4_)_3_
Locality: Franklin, Sussex County, New Jersey, USA
Source: Marcus Origlieri
Description: Reddish brown fragments
Measured chemistry: (Ca_2.27_Mn_0.73_)_Σ=3_(Fe^3+^_1.35_Al_0.65_)_Σ=2_(Si_1.00_O_4_)_3_
x	intensity
50.1401	0.0147262
52.0686	0.0188282
53.9971	0.0234165
55.9255	0.0206087
57.854	0.0249662
59.7825	0.0457375
61.7109	0.0428718
63.6394	0.0364164
65.5679	0.0359755
67.4963	0.0383468
69.4248	0.0395574
71.3533	0.0422628
73.2817	0.040469
75.2102	0.0387235
77.1387	0.0386456
79.0671	0.0420725
80.9956	0.0441743
82.9241	0.0436122
84.8525	0.0420387
86.781	0.0413934
88.7095	0.0412504
90.6379	0.0422322
92.5664	0.0455072
94.4948	0.0491006
96.4233	0.0488959
98.3518	0.0483682
100.28	0.0485327
102.209	0.0495973
104.137	0.0506734
106.066	0.0527479
107.994	0.0528571
109.923	0.0523822
111.851	0.0544119
113.779	0.0557967
115.708	0.0561427
117.636	0.0585849
119.565	0.0613495
121.493	0.06384
123.422	0.0651866
125.35	0.0661968
127.279	0.0670856
129.207	0.070257
131.136	0.0714842
133.064	0.0718671
134.993	0.0726693
136.921	0.0748607
138.85	0.0759919
140.778	0.0756457
142.707	0.0754811
144.635	0.0764145
146.563	0.0768198
148.492	0.0773996
150.42	0.0773091
152.349	0.0775247
154.277	0.0775186
156.206	0.0788739
158.134	0.0806016
160.063	0.0823263
161.991	0.0830768
163.92	0.0848157
165.848	0.0861723
167.777	0.0866775
169.705	0.0874942
171.633	0.087786
173.562	0.0882501
175.49	0.0889755
177.419	0.0893358
179.347	0.0904654
181.276	0.0903986
183.204	0.0899017
185.133	0.0902446
187.061	0.0904414
188.99	0.089765
190.918	0.0897184
192.847	0.0887615
194.775	0.088383
196.704	0.0895486
198.632	0.0910175
200.56	0.091381
202.489	0.092105
204.417	0.0936479
206.346	0.0963642
208.274	0.0976773
210.203	0.0978686
212.131	0.0982088
214.06	0.0980833
215.988	0.0974595
217.917	0.0973622
219.845	0.09702
221.774	0.0969536
223.702	0.0970731
225.631	0.0977617
227.559	0.0985723
229.488	0.0991836
231.416	0.0991735
233.344	0.100168
235.273	0.101378
237.201	0.101943
239.13	0.103027
241.058	0.104467
242.987	0.104726
244.915	0.105369
246.844	0.106364
248.772	0.10728
250.701	0.107484
252.629	0.108552
254.558	0.10984
256.486	0.110868
258.414	0.111576
260.343	0.112472
262.271	0.113312
264.2	0.113964
266.128	0.114344
268.057	0.115031
269.985	0.115811
271.914	0.116949
273.842	0.117119
275.771	0.117169
277.699	0.118048
279.628	0.118905
281.556	0.11927
283.485	0.119664
285.413	0.119577
287.341	0.120393
289.27	0.121149
291.198	0.121138
293.127	0.120985
295.055	0.121714
296.984	0.122116
298.912	0.122561
300.841	0.123591
302.769	0.124704
304.698	0.123992
306.626	0.12368
308.555	0.123786
310.483	0.124141
312.411	0.124286
314.34	0.124497
316.269	0.124347
318.197	0.124163
320.125	0.123798
322.054	0.123867
323.982	0.124258
325.911	0.124388
327.839	0.124176
329.768	0.123649
331.696	0.123131
333.625	0.123136
335.553	0.123173
337.482	0.123542
339.41	0.12365
341.339	0.123785
343.267	0.123954
345.195	0.124326
347.124	0.124645
349.052	0.125261
350.981	0.125991
352.909	0.12652
354.838	0.126313
356.766	0.12578
358.695	0.124876
360.623	0.123574
362.552	0.122378
364.48	0.121325
366.409	0.119992
368.337	0.119248
370.265	0.119046
372.194	0.119652
374.122	0.120757
376.051	0.122519
377.979	0.124
379.908	0.125154
381.836	0.126399
383.765	0.127913
385.693	0.129498
387.622	0.130829
389.55	0.13178
391.479	0.132818
393.407	0.133679
395.336	0.133986
397.264	0.134001
399.192	0.134183
401.121	0.134706
403.049	0.135015
404.978	0.134686
406.906	0.133846
408.835	0.133103
410.763	0.132607
412.692	0.13128
414.62	0.129859
416.549	0.128576
418.477	0.127321
420.406	0.125586
422.334	0.123654
424.262	0.122447
426.191	0.12101
428.12	0.119698
430.048	0.119336
431.976	0.118755
433.905	0.118743
435.833	0.119898
437.762	0.12166
439.69	0.124222
441.619	0.127359
443.547	0.129429
445.476	0.129815
447.404	0.128461
449.333	0.12594
451.261	0.122676
453.19	0.119376
455.118	0.115925
457.046	0.112412
458.975	0.108633
460.903	0.104965
462.832	0.101476
464.76	0.0982124
466.689	0.0947177
468.617	0.0907662
470.546	0.0863224
472.474	0.0836507
474.403	0.0825392
476.331	0.0823898
478.26	0.0829741
480.188	0.0845644
482.116	0.0867431
484.045	0.0884752
485.974	0.0882412
487.902	0.0854629
489.83	0.0815846
491.759	0.0778689
493.687	0.0746874
495.616	0.0721771
497.544	0.0714127
499.473	0.0732109
501.401	0.0760848
503.33	0.0799069
505.258	0.0847658
507.187	0.0906895
509.115	0.0975008
511.043	0.104712
512.972	0.110762
514.9	0.115377
516.829	0.118563
518.757	0.120194
520.686	0.119247
522.614	0.116857
524.543	0.113198
526.471	0.10805
528.4	0.102124
530.328	0.0960906
532.257	0.0891219
534.185	0.0818112
536.114	0.0757716
538.042	0.0700994
539.971	0.0644281
541.899	0.0598067
543.827	0.0565022
545.756	0.0541637
547.684	0.0521318
549.613	0.0510278
551.541	0.0502237
553.47	0.0490184
555.398	0.0476912
557.327	0.0468842
559.255	0.0464204
561.184	0.046391
563.112	0.0458731
565.041	0.0452442
566.969	0.0447707
568.898	0.0451224
570.826	0.0453782
572.755	0.0450734
574.683	0.0448679
576.611	0.044991
578.54	0.0445557
580.468	0.0444072
582.397	0.0448074
584.325	0.0452026
586.254	0.0464308
588.182	0.048478
590.111	0.0506952
592.039	0.0533542
593.968	0.0568059
595.896	0.0604317
597.824	0.0625943
599.753	0.0634691
601.682	0.0627706
603.61	0.0604398
605.538	0.0576375
607.467	0.0555174
609.395	0.0530607
611.324	0.0508442
613.252	0.0499604
615.181	0.0492132
617.109	0.0476655
619.038	0.0472029
620.966	0.0476865
622.894	0.0478326
624.823	0.0480623
626.751	0.0491976
628.68	0.0511567
630.608	0.053086
632.537	0.0547676
634.465	0.0559428
636.394	0.0570254
638.322	0.0583397
640.251	0.0596223
642.179	0.0611161
644.108	0.0626089
646.036	0.0641811
647.965	0.0657067
649.893	0.0668418
651.822	0.0681768
653.75	0.0697597
655.678	0.0714368
657.607	0.0737737
659.535	0.0755967
661.464	0.0769309
663.392	0.0780912
665.321	0.0791488
667.249	0.0806781
669.178	0.082147
671.106	0.0832922
673.035	0.0853142
674.963	0.0870974
676.892	0.0888155
678.82	0.0906202
680.749	0.0918493
682.677	0.0935335
684.606	0.095328
686.534	0.0966749
688.462	0.0982368
690.391	0.0999687
692.319	0.102128
694.248	0.104216
696.176	0.10604
698.105	0.107157
700.033	0.108828
