Measurement: Infrared, Infrared Data Processed
Mineral: Anhydrite
Rruff sample: R040061
Ideal chemistry: CaS^6+^O_4_
Locality: Chester County, Pennsylvania, USA
Source: University of Arizona Mineral Museum
Description: Pale purple fractured single crystal
Measured chemistry: Ca_0.98_S_1.01_O_4_
x	intensity
399.193	0
408.835	0.0115096
418.477	0.0135714
428.12	0.0143786
437.762	0.0149344
447.404	0.0117664
457.047	0.0152695
466.689	0.0141596
476.331	0.015572
485.974	0.0138685
495.616	0.0165439
505.258	0.0181632
514.901	0.0206454
524.543	0.0159879
534.185	0.0168139
543.828	0.0208921
553.47	0.0245601
563.112	0.0347711
572.755	0.0555977
582.397	0.12202
592.039	0.300895
601.682	0.13892
611.324	0.167287
620.966	0.0619465
630.609	0.0240775
640.251	0.0272387
649.893	0.0389298
659.536	0.0741175
669.178	0.186677
678.82	0.16417
688.463	0.0606781
698.105	0.014632
707.747	0.0115867
717.39	0.010888
727.032	0.0105696
736.674	0.0111242
746.317	0.0119244
755.959	0.0114416
765.601	0.0120581
775.244	0.0123768
784.886	0.0124993
794.528	0.0123314
804.171	0.0134224
813.813	0.0153323
823.455	0.0167349
833.098	0.0181049
842.74	0.0211632
852.382	0.0222875
862.025	0.0241768
871.667	0.0259907
881.309	0.0273314
890.952	0.0295843
900.594	0.0313616
910.236	0.0354507
919.879	0.0396812
929.521	0.0431955
939.163	0.0471585
948.806	0.0526737
958.448	0.0598926
968.09	0.068105
977.733	0.0777515
987.375	0.0903752
997.017	0.107712
1006.66	0.128726
1016.3	0.149253
1025.94	0.172028
1035.59	0.209345
1045.23	0.254341
1054.87	0.306573
1064.51	0.368149
1074.16	0.435858
1083.8	0.504799
1093.44	0.565268
1103.08	0.550684
1112.72	0.524024
1122.37	0.481745
1132.01	0.426782
1141.65	0.37845
1151.3	0.332368
1160.94	0.254031
1170.58	0.192048
1180.22	0.144389
1189.86	0.107804
1199.51	0.0775211
1209.15	0.0504519
1218.79	0.0374299
1228.43	0.0232723
1238.08	0.0132777
1247.72	0.0098719
1257.36	0.00633001
1267	0.00462514
1276.64	0.00517218
1286.29	0.00510494
1295.93	0.00413297
1305.57	0.00221206
1315.21	0.00284561
1324.86	0.00187652
1334.5	0.00220537
1344.14	0.0017978
1353.78	0.00153363
1363.43	0.00140782
1373.07	0.00171059
1382.71	0.001451
1392.35	0.00170974
1401.99	0.00151567
1411.64	0.00163216
1421.28	0.00173143
1430.92	0.0016894
1440.57	0.0018895
1450.21	0.00206442
1459.85	0.00201859
1469.49	0.00230861
1479.13	0.00186176
1488.78	0.00197601
1498.42	0.00189059
1508.06	0.00147495
1517.7	0.00182065
1527.35	0.00260047
1536.99	0.00266676
1546.63	0.00335203
1556.27	0.00330967
1565.91	0.00382777
1575.56	0.00319734
1585.2	0.00415209
1594.84	0.00489723
1604.48	0.00585859
1614.13	0.00947205
1623.77	0.0116691
1633.41	0.00692673
1643.05	0.0057403
1652.7	0.00428841
1662.34	0.00525967
1671.98	0.00575751
1681.62	0.00740273
1691.27	0.00655851
1700.91	0.0050261
1710.55	0.00614251
1720.19	0.00588667
1729.84	0.00524871
1739.48	0.00478556
1749.12	0.00466861
1758.76	0.00437468
1768.4	0.00437137
1778.05	0.00469596
1787.69	0.00488289
1797.33	0.0044985
1806.97	0.00455955
1816.62	0.0042458
1826.26	0.00503933
1835.9	0.00434158
1845.54	0.00420133
1855.18	0.00465366
1864.83	0.0042993
1874.47	0.00498032
1884.11	0.00397086
1893.75	0.00372802
1903.4	0.00376364
1913.04	0.00495286
1922.68	0.00244945
1932.32	0.0030706
1941.97	0.00221987
1951.61	0.00139553
1961.25	0.0015988
1970.89	0.000489901
1980.54	0.00589127
1990.18	0.00269624
1999.82	0.00195086
2009.46	0.000713677
2019.11	0.00189249
2028.75	-4.35477e-06
2038.39	0.00223012
2048.03	0.00489405
2057.67	0.00137652
2067.32	0.00290662
2076.96	0.00406576
2086.6	0.00376666
2096.24	0.00332919
2105.89	0.00414931
2115.53	0.00282335
2125.17	0.00547943
2134.81	0.00406209
2144.45	0.00366188
2154.1	-0.00844305
2163.74	-0.00097116
2173.38	-0.00250591
2183.02	-0.00474034
2192.67	-0.00201364
2202.31	-0.000203686
2211.95	-0.00197249
2221.59	0.00288364
2231.24	0.00440207
2240.88	0.00368132
2250.52	0.00162986
2260.16	0.00506151
2269.8	0.00371324
2279.45	0.0060752
2289.09	0.00802833
2298.73	0.00839657
2308.38	0.00796063
2318.02	0.0092189
2327.66	0.00840987
2337.3	0.00796703
2346.94	0.00810074
2356.59	0.00770796
2366.23	0.00690994
2375.87	0.00804839
2385.51	0.00732975
2395.16	0.00806219
2404.8	0.00902985
2414.44	0.00810671
2424.08	0.00942646
2433.72	0.00849955
2443.37	0.00942044
2453.01	0.0106956
2462.65	0.0114655
2472.29	0.00957635
2481.94	0.0121395
2491.58	0.00931307
2501.22	0.0104286
2510.86	0.0108191
2520.51	0.00910869
2530.15	0.0107331
2539.79	0.0119364
2549.43	0.0127377
2559.07	0.0115357
2568.72	0.0129483
2578.36	0.0105478
2588	0.012256
2597.64	0.0114705
2607.29	0.0121153
2616.93	0.0133466
2626.57	0.0128563
2636.21	0.0125399
2645.86	0.012733
2655.5	0.0127338
2665.14	0.0123903
2674.78	0.0110574
2684.43	0.0115368
2694.07	0.0118596
2703.71	0.0124265
2713.35	0.0100685
2722.99	0.011702
2732.64	0.0121086
2742.28	0.0108332
2751.92	0.0120856
2761.56	0.0124499
2771.21	0.0120231
2780.85	0.0118262
2790.49	0.0114488
2800.13	0.0127039
2809.78	0.0112093
2819.42	0.012767
2829.06	0.012799
2838.7	0.0118347
2848.34	0.0117289
2857.99	0.012067
2867.63	0.0124981
2877.27	0.0146207
2886.91	0.013956
2896.56	0.014123
2906.2	0.0138852
2915.84	0.0135561
2925.48	0.0145536
2935.13	0.0131613
2944.77	0.0152446
2954.41	0.0123831
2964.05	0.0138108
2973.7	0.0143717
2983.34	0.0144776
2992.98	0.0141634
3002.62	0.0157982
3012.26	0.0147905
3021.91	0.0143976
3031.55	0.0151485
3041.19	0.0141987
3050.83	0.0138105
3060.48	0.0157239
3070.12	0.0155643
3079.76	0.0153356
3089.4	0.0150414
3099.05	0.0147094
3108.69	0.0150185
3118.33	0.0152104
3127.97	0.0150034
3137.61	0.0158538
3147.26	0.0161094
3156.9	0.0176187
3166.54	0.016403
3176.18	0.016215
3185.83	0.0170763
3195.47	0.0193285
3205.11	0.0160533
3214.75	0.0175651
3224.4	0.0191477
3234.04	0.0205968
3243.68	0.0192209
3253.32	0.0174025
3262.97	0.0210166
3272.61	0.0225591
3282.25	0.0215655
3291.89	0.0213488
3301.53	0.0232329
3311.18	0.021645
3320.82	0.0234004
3330.46	0.0228557
3340.1	0.0259909
3349.75	0.026159
3359.39	0.0265295
3369.03	0.0297111
3378.67	0.0314414
3388.32	0.0341777
3397.96	0.03799
3407.6	0.038905
3417.24	0.0337214
3426.89	0.0337881
3436.53	0.0330001
3446.17	0.0287305
3455.81	0.0281947
3465.45	0.0298356
3475.1	0.0304238
3484.74	0.0318391
3494.38	0.0323528
3504.02	0.0281934
3513.67	0.034398
3523.31	0.0370787
3532.95	0.0366237
3542.59	0.0377144
3552.24	0.0350005
3561.88	0.0317983
3571.52	0.0283495
3581.16	0.0235246
3590.8	0.0219458
3600.45	0.0231258
3610.09	0.0243222
3619.73	0.0171283
3629.37	0.0216879
3639.02	0.0157306
3648.66	0.0182002
3658.3	0.0197227
3667.94	0.0154496
3677.59	0.0175912
3687.23	0.0171064
3696.87	0.0154078
3706.51	0.0168827
3716.16	0.0190684
3725.8	0.0184879
3735.44	0.0147201
3745.08	0.0169682
3754.72	0.019546
3764.37	0.0179699
3774.01	0.01852
3783.65	0.0228405
3793.29	0.0188322
3802.94	0.0195773
3812.58	0.0232873
3822.22	0.0225538
3831.86	0.0192454
3841.51	0.0212188
3851.15	0.0209195
3860.79	0.0185624
3870.43	0.018142
3880.07	0.0177594
3889.72	0.0225358
3899.36	0.0163688
3909	0.0219166
3918.64	0.0188779
3928.29	0.0193155
3937.93	0.0182021
3947.57	0.0185101
3957.21	0.020037
3966.86	0.0213412
3976.5	0.0229858
3986.14	0.0213456
3995.78	0.0205618
