Measurement: Infrared, Infrared Data Processed
Mineral: Argentojarosite
Rruff sample: R060097
Ideal chemistry: Ag^1+^Fe^3+^_3_(S^6+^O_4_)_2_(OH)_6_
Locality: unknown
Source: University of Arizona Mineral Museum
Description: Yellowish-brown flat hexagonal plates
Measured chemistry: Ag_1.00_Fe^3+^_3.00_(S_1.00_O_4_)_2_(OH)_6_
x	intensity
399.193	0.128297
408.835	0.164859
418.477	0.211748
428.12	0.262005
437.762	0.301618
447.404	0.269211
457.047	0.336922
466.689	0.367977
476.331	0.284723
485.974	0.261109
495.616	0.341363
505.258	0.292606
514.901	0.233663
524.543	0.190781
534.185	0.156935
543.828	0.124929
553.47	0.107127
563.112	0.106245
572.755	0.105678
582.397	0.101902
592.039	0.0974878
601.682	0.0971394
611.324	0.115752
620.966	0.186285
630.609	0.146349
640.251	0.0930612
649.893	0.0849271
659.536	0.0882281
669.178	0.0945791
678.82	0.0868356
688.463	0.0656227
698.105	0.0495101
707.747	0.0397554
717.39	0.0338347
727.032	0.0299181
736.674	0.0274632
746.317	0.0255861
755.959	0.0252243
765.601	0.0258988
775.244	0.0268574
784.886	0.0289464
794.528	0.0310576
804.171	0.0341896
813.813	0.0383604
823.455	0.0419288
833.098	0.0443625
842.74	0.0493452
852.382	0.054679
862.025	0.0612234
871.667	0.0670418
881.309	0.0712914
890.952	0.0774519
900.594	0.0869437
910.236	0.098172
919.879	0.113476
929.521	0.13242
939.163	0.156138
948.806	0.185002
958.448	0.221018
968.09	0.265474
977.733	0.322203
987.375	0.394237
997.017	0.475792
1006.66	0.539506
1016.3	0.408426
1025.94	0.323937
1035.59	0.21135
1045.23	0.133076
1054.87	0.133334
1064.51	0.214122
1074.16	0.37317
1083.8	0.507426
1093.44	0.3958
1103.08	0.279498
1112.72	0.205741
1122.37	0.150936
1132.01	0.104134
1141.65	0.0979205
1151.3	0.117969
1160.94	0.132816
1170.58	0.139236
1180.22	0.133306
1189.86	0.116153
1199.51	0.0895261
1209.15	0.0605292
1218.79	0.0378017
1228.43	0.0243553
1238.08	0.0179407
1247.72	0.0143605
1257.36	0.0117657
1267	0.00997062
1276.64	0.008911
1286.29	0.00805708
1295.93	0.00744928
1305.57	0.0076888
1315.21	0.00808379
1324.86	0.00805879
1334.5	0.00817523
1344.14	0.00854909
1353.78	0.00898911
1363.43	0.00923362
1373.07	0.00954559
1382.71	0.00989865
1392.35	0.010367
1401.99	0.0105526
1411.64	0.0110666
1421.28	0.0111597
1430.92	0.0115905
1440.57	0.0119339
1450.21	0.0122794
1459.85	0.0125789
1469.49	0.0123913
1479.13	0.0120749
1488.78	0.0121974
1498.42	0.0121136
1508.06	0.0122857
1517.7	0.0125504
1527.35	0.0129768
1536.99	0.01366
1546.63	0.0140712
1556.27	0.0140184
1565.91	0.0144122
1575.56	0.0148897
1585.2	0.0149026
1594.84	0.0150973
1604.48	0.0153246
1614.13	0.0157662
1623.77	0.0161878
1633.41	0.0174482
1643.05	0.0171598
1652.7	0.0168948
1662.34	0.0168433
1671.98	0.016508
1681.62	0.016735
1691.27	0.0169623
1700.91	0.0175141
1710.55	0.0180357
1720.19	0.0178179
1729.84	0.0178064
1739.48	0.017223
1749.12	0.0171655
1758.76	0.0176956
1768.4	0.0175476
1778.05	0.017915
1787.69	0.0183461
1797.33	0.0183925
1806.97	0.0185947
1816.62	0.0184723
1826.26	0.0191097
1835.9	0.0193041
1845.54	0.0191571
1855.18	0.0198107
1864.83	0.0200034
1874.47	0.0200608
1884.11	0.0202829
1893.75	0.0211117
1903.4	0.0214007
1913.04	0.021975
1922.68	0.0228542
1932.32	0.023824
1941.97	0.0244886
1951.61	0.0274358
1961.25	0.0313373
1970.89	0.033632
1980.54	0.0427821
1990.18	0.0402539
1999.82	0.0357123
2009.46	0.0331185
2019.11	0.0340001
2028.75	0.0404675
2038.39	0.0441754
2048.03	0.0400928
2057.67	0.0357718
2067.32	0.033132
2076.96	0.0326103
2086.6	0.0335787
2096.24	0.0320254
2105.89	0.0321755
2115.53	0.0321685
2125.17	0.0311336
2134.81	0.0297746
2144.45	0.0305991
2154.1	0.0307565
2163.74	0.0320134
2173.38	0.0303511
2183.02	0.0318273
2192.67	0.0314755
2202.31	0.0324607
2211.95	0.0321034
2221.59	0.0328224
2231.24	0.0320964
2240.88	0.0325424
2250.52	0.0327413
2260.16	0.0331115
2269.8	0.0326506
2279.45	0.0329996
2289.09	0.0322377
2298.73	0.0313598
2308.38	0.0308702
2318.02	0.0313597
2327.66	0.0303044
2337.3	0.0303678
2346.94	0.0306099
2356.59	0.030005
2366.23	0.030239
2375.87	0.0310675
2385.51	0.0317473
2395.16	0.032064
2404.8	0.03243
2414.44	0.0337678
2424.08	0.0340962
2433.72	0.0349681
2443.37	0.0356791
2453.01	0.0361238
2462.65	0.0360854
2472.29	0.0367654
2481.94	0.0365523
2491.58	0.0365238
2501.22	0.0371489
2510.86	0.0376777
2520.51	0.0381757
2530.15	0.0383146
2539.79	0.0385231
2549.43	0.0392175
2559.07	0.039418
2568.72	0.0397624
2578.36	0.0403004
2588	0.0407099
2597.64	0.041039
2607.29	0.0420629
2616.93	0.042291
2626.57	0.0422609
2636.21	0.0425159
2645.86	0.0428222
2655.5	0.0433476
2665.14	0.0426677
2674.78	0.0432177
2684.43	0.0437268
2694.07	0.0442645
2703.71	0.0443864
2713.35	0.0451502
2722.99	0.0453047
2732.64	0.0459873
2742.28	0.0465346
2751.92	0.0471245
2761.56	0.0475872
2771.21	0.0481437
2780.85	0.0483848
2790.49	0.0491133
2800.13	0.0500645
2809.78	0.0501076
2819.42	0.0508332
2829.06	0.0521138
2838.7	0.053069
2848.34	0.0539109
2857.99	0.0547313
2867.63	0.0543777
2877.27	0.0551944
2886.91	0.0561109
2896.56	0.0572246
2906.2	0.0582247
2915.84	0.0597656
2925.48	0.0610528
2935.13	0.0602179
2944.77	0.0606088
2954.41	0.0617169
2964.05	0.0627523
2973.7	0.0623608
2983.34	0.0630456
2992.98	0.0643417
3002.62	0.0655179
3012.26	0.0665918
3021.91	0.0681328
3031.55	0.0690373
3041.19	0.0714522
3050.83	0.0733929
3060.48	0.0754292
3070.12	0.0760922
3079.76	0.079231
3089.4	0.0814071
3099.05	0.0840529
3108.69	0.0870946
3118.33	0.0897064
3127.97	0.09196
3137.61	0.0933565
3147.26	0.0962517
3156.9	0.0993897
3166.54	0.103135
3176.18	0.107674
3185.83	0.113103
3195.47	0.116601
3205.11	0.122384
3214.75	0.128102
3224.4	0.136421
3234.04	0.145984
3243.68	0.158781
3253.32	0.171998
3262.97	0.183822
3272.61	0.19432
3282.25	0.204129
3291.89	0.21943
3301.53	0.240998
3311.18	0.267033
3320.82	0.305517
3330.46	0.356738
3340.1	0.40864
3349.75	0.386549
3359.39	0.287337
3369.03	0.228909
3378.67	0.182305
3388.32	0.156139
3397.96	0.129201
3407.6	0.110971
3417.24	0.0996911
3426.89	0.0900804
3436.53	0.080185
3446.17	0.0668813
3455.81	0.0548846
3465.45	0.0476635
3475.1	0.042897
3484.74	0.0407258
3494.38	0.0388852
3504.02	0.0373475
3513.67	0.0342734
3523.31	0.0339965
3532.95	0.0328868
3542.59	0.0336525
3552.24	0.0336919
3561.88	0.0343449
3571.52	0.0335093
3581.16	0.0326543
3590.8	0.032958
3600.45	0.032975
3610.09	0.0328279
3619.73	0.0335141
3629.37	0.0339861
3639.02	0.0333633
3648.66	0.0348007
3658.3	0.0342954
3667.94	0.0358577
3677.59	0.0355948
3687.23	0.0356301
3696.87	0.036182
3706.51	0.036845
3716.16	0.0378674
3725.8	0.0382772
3735.44	0.038831
3745.08	0.0391326
3754.72	0.0394039
3764.37	0.0403159
3774.01	0.0406491
3783.65	0.0410445
3793.29	0.0407258
3802.94	0.0410922
3812.58	0.0414806
3822.22	0.0412652
3831.86	0.0419906
3841.51	0.0420175
3851.15	0.0420814
3860.79	0.0423475
3870.43	0.0411359
3880.07	0.0426067
3889.72	0.0425559
3899.36	0.0430093
3909	0.0427108
3918.64	0.0442052
3928.29	0.0437195
3937.93	0.0438405
3947.57	0.0445597
3957.21	0.0443391
3966.86	0.0451488
3976.5	0.0456463
3986.14	0.0456641
3995.78	0.0447611
