Measurement: Infrared, Infrared Data Processed
Mineral: Argyrodite
Rruff sample: R050437
Ideal chemistry: Ag^1+^_8_Ge^4+^S^2-^_6_
Locality: Himmelsfurst mine, Freiberg, Saxony, Germany
Source: University of Arizona Mineral Museum
Description: Steel gray with a red hint, mass of poorly formed crystals, associated with pyrargyrite.
Measured chemistry: Ag_8.00_Ge_1.00_S_6.00_
x	intensity
399.193	0.161246
408.835	0.106829
418.477	0.0918066
428.12	0.0879119
437.762	0.0988376
447.404	0.115698
457.047	0.13258
466.689	0.145676
476.331	0.154749
485.974	0.166659
495.616	0.173085
505.258	0.182632
514.901	0.194306
524.543	0.203378
534.185	0.208692
543.828	0.218398
553.47	0.227027
563.112	0.232733
572.755	0.238698
582.397	0.248429
592.039	0.254884
601.682	0.26004
611.324	0.263902
620.966	0.265539
630.609	0.268021
640.251	0.272784
649.893	0.274103
659.536	0.278945
669.178	0.283368
678.82	0.286718
688.463	0.290236
698.105	0.292981
707.747	0.297012
717.39	0.300953
727.032	0.304812
736.674	0.310281
746.317	0.314231
755.959	0.317794
765.601	0.323933
775.244	0.326519
784.886	0.328628
794.528	0.330687
804.171	0.332419
813.813	0.336035
823.455	0.339293
833.098	0.342928
842.74	0.346191
852.382	0.349161
862.025	0.353978
871.667	0.358969
881.309	0.363556
890.952	0.367033
900.594	0.369563
910.236	0.372352
919.879	0.376487
929.521	0.380789
939.163	0.383756
948.806	0.385893
958.448	0.38817
968.09	0.392133
977.733	0.39479
987.375	0.396904
997.017	0.399922
1006.66	0.402701
1016.3	0.405324
1025.94	0.407557
1035.59	0.410274
1045.23	0.412738
1054.87	0.414744
1064.51	0.418702
1074.16	0.421754
1083.8	0.425167
1093.44	0.42784
1103.08	0.430482
1112.72	0.432601
1122.37	0.435825
1132.01	0.439309
1141.65	0.443238
1151.3	0.446231
1160.94	0.448084
1170.58	0.448368
1180.22	0.451009
1189.86	0.453608
1199.51	0.456458
1209.15	0.458405
1218.79	0.461569
1228.43	0.464085
1238.08	0.467512
1247.72	0.469677
1257.36	0.471179
1267	0.47271
1276.64	0.476567
1286.29	0.480205
1295.93	0.482171
1305.57	0.485143
1315.21	0.488071
1324.86	0.491086
1334.5	0.493388
1344.14	0.496858
1353.78	0.499907
1363.43	0.50412
1373.07	0.50654
1382.71	0.5089
1392.35	0.511009
1401.99	0.514557
1411.64	0.518241
1421.28	0.521057
1430.92	0.523303
1440.57	0.526839
1450.21	0.529642
1459.85	0.532302
1469.49	0.53261
1479.13	0.534664
1488.78	0.537051
1498.42	0.540499
1508.06	0.543475
1517.7	0.5454
1527.35	0.547721
1536.99	0.550526
1546.63	0.552976
1556.27	0.556002
1565.91	0.559057
1575.56	0.562571
1585.2	0.56516
1594.84	0.56851
1604.48	0.571419
1614.13	0.573187
1623.77	0.576395
1633.41	0.579503
1643.05	0.582432
1652.7	0.584524
1662.34	0.586758
1671.98	0.58887
1681.62	0.591395
1691.27	0.594056
1700.91	0.596069
1710.55	0.598343
1720.19	0.601547
1729.84	0.604054
1739.48	0.605451
1749.12	0.604587
1758.76	0.606429
1768.4	0.609835
1778.05	0.610799
1787.69	0.613285
1797.33	0.616143
1806.97	0.618332
1816.62	0.620767
1826.26	0.622222
1835.9	0.625352
1845.54	0.62723
1855.18	0.630047
1864.83	0.631168
1874.47	0.633572
1884.11	0.636767
1893.75	0.638477
1903.4	0.641249
1913.04	0.64211
1922.68	0.641196
1932.32	0.642598
1941.97	0.644171
1951.61	0.643994
1961.25	0.641686
1970.89	0.6382
1980.54	0.641499
1990.18	0.645066
1999.82	0.644871
2009.46	0.644389
2019.11	0.64888
2028.75	0.643717
2038.39	0.657752
2048.03	0.664788
2057.67	0.669101
2067.32	0.67181
2076.96	0.679029
2086.6	0.681956
2096.24	0.682986
2105.89	0.686675
2115.53	0.685265
2125.17	0.686836
2134.81	0.682246
2144.45	0.679092
2154.1	0.6762
2163.74	0.684695
2173.38	0.686216
2183.02	0.688328
2192.67	0.696414
2202.31	0.698617
2211.95	0.702327
2221.59	0.706733
2231.24	0.707304
2240.88	0.712408
2250.52	0.722229
2260.16	0.722372
2269.8	0.727745
2279.45	0.731127
2289.09	0.73681
2298.73	0.736957
2308.38	0.74249
2318.02	0.747667
2327.66	0.751851
2337.3	0.752367
2346.94	0.750508
2356.59	0.756397
2366.23	0.758312
2375.87	0.756215
2385.51	0.759014
2395.16	0.760077
2404.8	0.75941
2414.44	0.763233
2424.08	0.76632
2433.72	0.770597
2443.37	0.769554
2453.01	0.772711
2462.65	0.774871
2472.29	0.77785
2481.94	0.779656
2491.58	0.780655
2501.22	0.783876
2510.86	0.784932
2520.51	0.789402
2530.15	0.789594
2539.79	0.792604
2549.43	0.79334
2559.07	0.798438
2568.72	0.799777
2578.36	0.801995
2588	0.806764
2597.64	0.806477
2607.29	0.811634
2616.93	0.809357
2626.57	0.81433
2636.21	0.816501
2645.86	0.819483
2655.5	0.821817
2665.14	0.823041
2674.78	0.825677
2684.43	0.825604
2694.07	0.828655
2703.71	0.830567
2713.35	0.83356
2722.99	0.834506
2732.64	0.838503
2742.28	0.839242
2751.92	0.843552
2761.56	0.845928
2771.21	0.848971
2780.85	0.849375
2790.49	0.85185
2800.13	0.852518
2809.78	0.856599
2819.42	0.857521
2829.06	0.862256
2838.7	0.862723
2848.34	0.864987
2857.99	0.865686
2867.63	0.868086
2877.27	0.871081
2886.91	0.873293
2896.56	0.878957
2906.2	0.87722
2915.84	0.878652
2925.48	0.876716
2935.13	0.876448
2944.77	0.881534
2954.41	0.886219
2964.05	0.884068
2973.7	0.885069
2983.34	0.886747
2992.98	0.891755
3002.62	0.892926
3012.26	0.894753
3021.91	0.897062
3031.55	0.899961
3041.19	0.904139
3050.83	0.907391
3060.48	0.906007
3070.12	0.910972
3079.76	0.912832
3089.4	0.914925
3099.05	0.915428
3108.69	0.918392
3118.33	0.920094
3127.97	0.925416
3137.61	0.92227
3147.26	0.928938
3156.9	0.93324
3166.54	0.932729
3176.18	0.935379
3185.83	0.936501
3195.47	0.93727
3205.11	0.940845
3214.75	0.941348
3224.4	0.946463
3234.04	0.947601
3243.68	0.950436
3253.32	0.950607
3262.97	0.953261
3272.61	0.956907
3282.25	0.955252
3291.89	0.960731
3301.53	0.964037
3311.18	0.958164
3320.82	0.96521
3330.46	0.967631
3340.1	0.972546
3349.75	0.971863
3359.39	0.974812
3369.03	0.972039
3378.67	0.981334
3388.32	0.98025
3397.96	0.980255
3407.6	0.987543
3417.24	0.983932
3426.89	0.988321
3436.53	0.989916
3446.17	0.995085
3455.81	0.998263
3465.45	0.991918
3475.1	0.998744
3484.74	1.00341
3494.38	1.00732
3504.02	1.00428
3513.67	1.00496
3523.31	1.00354
3532.95	1.01351
3542.59	1.01231
3552.24	1.0052
3561.88	1.00659
3571.52	1.01145
3581.16	1.01632
3590.8	1.0187
3600.45	1.01955
3610.09	1.01699
3619.73	1.02607
3629.37	1.02271
3639.02	1.02825
3648.66	1.03345
3658.3	1.03657
3667.94	1.03822
3677.59	1.04242
3687.23	1.03879
3696.87	1.04329
3706.51	1.04911
3716.16	1.0446
3725.8	1.04304
3735.44	1.04402
3745.08	1.0542
3754.72	1.05451
3764.37	1.05274
3774.01	1.06253
3783.65	1.05679
3793.29	1.06645
3802.94	1.06703
3812.58	1.07433
3822.22	1.07203
3831.86	1.07672
3841.51	1.07821
3851.15	1.08632
3860.79	1.08731
3870.43	1.08185
3880.07	1.08454
3889.72	1.08569
3899.36	1.08542
3909	1.09548
3918.64	1.09585
3928.29	1.09706
3937.93	1.09889
3947.57	1.10756
3957.21	1.10617
3966.86	1.10687
3976.5	1.10855
3986.14	1.10927
3995.78	1.11435
