Measurement: Infrared, Infrared Data Processed
Mineral: Arsenolite
Rruff sample: R050383
Ideal chemistry: As^3+^_2_O_3_
Locality: Eureka, Nevada, USA
Source: University of Arizona Mineral Museum
Description: Colorless hoppered octahedra
Measured chemistry: As_2.00_O_3_
x	intensity
374.123	0.00119456
383.765	-0.00527254
393.407	-0.00118767
403.05	0.00225351
412.692	0.00728881
422.334	0.0105953
431.976	0.0197333
441.619	0.040958
451.261	0.081186
460.904	0.198079
470.546	0.37097
480.188	0.267507
489.83	0.173748
499.473	0.0880296
509.115	0.0390033
518.758	0.0254005
528.4	0.0222351
538.042	0.0156938
547.684	0.0147038
557.327	0.0155962
566.969	0.0174802
576.611	0.0206259
586.254	0.024901
595.896	0.030772
605.538	0.0399023
615.181	0.043441
624.823	0.0520717
634.466	0.0643976
644.108	0.0805452
653.75	0.100067
663.393	0.124986
673.035	0.149602
682.677	0.183248
692.319	0.227229
701.962	0.277265
711.604	0.329489
721.246	0.389895
730.889	0.444786
740.531	0.499352
750.173	0.568573
759.816	0.640667
769.458	0.69067
779.101	0.709338
788.743	0.651504
798.385	0.340411
808.028	0.226276
817.67	0.153956
827.312	0.119355
836.955	0.106809
846.597	0.0636999
856.239	0.0265866
865.881	0.0122682
875.524	0.0105033
885.166	0.00830573
894.808	0.00611916
904.451	0.00696938
914.093	0.017528
923.736	0.013495
933.378	0.0146152
943.02	0.00656746
952.663	0.006009
962.305	0.00663052
971.947	0.00781424
981.59	0.0113374
991.232	0.0108589
1000.87	0.0119511
1010.52	0.0153128
1020.16	0.0286568
1029.8	0.0525253
1039.44	0.0792008
1049.09	0.0822941
1058.73	0.0620957
1068.37	0.0352728
1078.01	0.0170855
1087.65	0.010712
1097.3	0.00877137
1106.94	0.00833981
1116.58	0.00899211
1126.22	0.0100606
1135.87	0.0107792
1145.51	0.0126263
1155.15	0.0139789
1164.79	0.0143456
1174.44	0.011858
1184.08	0.0101843
1193.72	0.0103051
1203.36	0.0102363
1213.01	0.0106834
1222.65	0.0111672
1232.29	0.0137777
1241.93	0.0168021
1251.58	0.0206663
1261.22	0.0242627
1270.86	0.020158
1280.5	0.0157931
1290.14	0.0136399
1299.79	0.0127432
1309.43	0.012423
1319.07	0.0129304
1328.71	0.0133552
1338.36	0.0162008
1348	0.0146299
1357.64	0.0145611
1367.28	0.0139043
1376.92	0.0129759
1386.57	0.0127707
1396.21	0.0134053
1405.85	0.0140984
1415.49	0.0135357
1425.14	0.0133973
1434.78	0.0136782
1444.42	0.0139883
1454.06	0.0141257
1463.71	0.0142132
1473.35	0.0141147
1482.99	0.0137567
1492.63	0.0139908
1502.28	0.0143618
1511.92	0.0146423
1521.56	0.0149865
1531.2	0.0147604
1540.85	0.0152447
1550.49	0.0149281
1560.13	0.0154407
1569.77	0.0153623
1579.41	0.0155308
1589.06	0.0157523
1598.7	0.0162345
1608.34	0.0164288
1617.98	0.0172003
1627.63	0.0174318
1637.27	0.017645
1646.91	0.017839
1656.55	0.0177198
1666.19	0.0176665
1675.84	0.0182039
1685.48	0.0187727
1695.12	0.0189692
1704.77	0.0190848
1714.41	0.0195143
1724.05	0.0202128
1733.69	0.0211096
1743.33	0.0198316
1752.98	0.019242
1762.62	0.019659
1772.26	0.0200763
1781.9	0.0199899
1791.55	0.0205505
1801.19	0.0204629
1810.83	0.0207275
1820.47	0.0209163
1830.12	0.021172
1839.76	0.0216441
1849.4	0.0216328
1859.04	0.0221971
1868.68	0.0224071
1878.33	0.0224891
1887.97	0.0229362
1897.61	0.0233051
1907.25	0.0232653
1916.9	0.0240496
1926.54	0.0241562
1936.18	0.0240272
1945.82	0.02369
1955.46	0.0233631
1965.11	0.0251954
1974.75	0.0250221
1984.39	0.027519
1994.04	0.0264126
2003.68	0.0246206
2013.32	0.0263692
2022.96	0.0268753
2032.6	0.0275883
2042.25	0.0270943
2051.89	0.0268239
2061.53	0.0263384
2071.17	0.0261871
2080.82	0.0271013
2090.46	0.0269478
2100.1	0.0276513
2109.74	0.0278666
2119.39	0.0282214
2129.03	0.0271679
2138.67	0.0275316
2148.31	0.0283377
2157.95	0.029246
2167.6	0.0315945
2177.24	0.0311464
2186.88	0.0322152
2196.52	0.0310814
2206.17	0.0320573
2215.81	0.0318318
2225.45	0.0324291
2235.09	0.03352
2244.74	0.0325853
2254.38	0.0331345
2264.02	0.0327286
2273.66	0.0334149
2283.3	0.0345639
2292.95	0.0340111
2302.59	0.034223
2312.23	0.0344364
2321.87	0.0356102
2331.52	0.0342227
2341.16	0.0347109
2350.8	0.0346564
2360.44	0.035242
2370.09	0.0351636
2379.73	0.0351636
2389.37	0.0355185
2399.01	0.0353294
2408.66	0.0362299
2418.3	0.0354571
2427.94	0.0359249
2437.58	0.0362985
2447.22	0.0368267
2456.87	0.0366686
2466.51	0.0373148
2476.15	0.0374039
2485.79	0.0367361
2495.44	0.0369541
2505.08	0.0374683
2514.72	0.0373521
2524.36	0.0377925
2534.01	0.0384597
2543.65	0.0387864
2553.29	0.0386994
2562.93	0.0395419
2572.57	0.0396055
2582.22	0.0399129
2591.86	0.0408466
2601.5	0.040236
2611.14	0.0407873
2620.79	0.0414241
2630.43	0.0415473
2640.07	0.0417196
2649.71	0.0420791
2659.36	0.042048
2669	0.0423824
2678.64	0.0420776
2688.28	0.0427147
2697.93	0.0429379
2707.57	0.043211
2717.21	0.04335
2726.85	0.0437927
2736.49	0.0441543
2746.14	0.0445943
2755.78	0.0446661
2765.42	0.045207
2775.06	0.0450007
2784.71	0.0456689
2794.35	0.0458103
2803.99	0.0463688
2813.63	0.0464422
2823.28	0.0471788
2832.92	0.0481586
2842.56	0.04898
2852.2	0.0501187
2861.84	0.0498675
2871.49	0.0500109
2881.13	0.0503005
2890.77	0.0507992
2900.41	0.0514854
2910.06	0.053043
2919.7	0.054789
2929.34	0.0542855
2938.98	0.0527165
2948.62	0.0529088
2958.27	0.0537207
2967.91	0.0524411
2977.55	0.0513206
2987.2	0.0508224
2996.84	0.0514079
3006.48	0.0516795
3016.12	0.0516541
3025.76	0.0527024
3035.41	0.0526415
3045.05	0.0527219
3054.69	0.053255
3064.33	0.0537628
3073.98	0.0541644
3083.62	0.0543599
3093.26	0.0539223
3102.9	0.054336
3112.55	0.0552849
3122.19	0.0552967
3131.83	0.0559645
3141.47	0.0557142
3151.11	0.0559909
3160.76	0.0564081
3170.4	0.0570563
3180.04	0.0575605
3189.68	0.0577177
3199.33	0.0581891
3208.97	0.058631
3218.61	0.0582979
3228.25	0.058897
3237.9	0.0591653
3247.54	0.058783
3257.18	0.0601061
3266.82	0.0595526
3276.47	0.0598724
3286.11	0.0595408
3295.75	0.0602554
3305.39	0.0600621
3315.03	0.0602685
3324.68	0.0597978
3334.32	0.0608394
3343.96	0.060048
3353.6	0.0608766
3363.25	0.0606403
3372.89	0.0610686
3382.53	0.0621282
3392.17	0.0614454
3401.82	0.0624084
3411.46	0.0620339
3421.1	0.0622449
3430.74	0.0627258
3440.39	0.0625539
3450.03	0.0626592
3459.67	0.0625136
3469.31	0.0631938
3478.95	0.0637593
3488.6	0.0643535
3498.24	0.0641543
3507.88	0.0639985
3517.52	0.0647093
3527.17	0.0645457
3536.81	0.0650755
3546.45	0.0652187
3556.09	0.065326
3565.74	0.0655938
3575.38	0.0653967
3585.02	0.0656115
3594.66	0.0660888
3604.3	0.0648079
3613.95	0.0665286
3623.59	0.0671097
3633.23	0.0664722
3642.87	0.0668611
3652.52	0.0680065
3662.16	0.0675735
3671.8	0.0687336
3681.44	0.0683927
3691.09	0.068931
3700.73	0.0692515
3710.37	0.0696039
3720.01	0.0685721
3729.66	0.0694559
3739.3	0.0709238
3748.94	0.070993
3758.58	0.0704292
3768.22	0.0701807
3777.87	0.0712873
3787.51	0.0716237
3797.15	0.0724745
3806.79	0.0722533
3816.44	0.0723952
3826.08	0.072645
3835.72	0.0729774
3845.36	0.0730119
3855.01	0.0742951
3864.65	0.0734939
3874.29	0.0739902
3883.93	0.0730011
3893.57	0.0742804
3903.22	0.0744411
3912.86	0.0737079
3922.5	0.0729411
3932.14	0.0746578
3941.79	0.0743335
3951.43	0.0744426
3961.07	0.0754212
3970.71	0.0761092
3980.36	0.0757314
3990	0.0762613
3999.64	0.0767267
