Measurement: Infrared, Infrared Data Processed
Mineral: Atacamite
Rruff sample: R050098
Ideal chemistry: Cu^2+^_2_Cl(OH)_3_
Locality: La Farola mine, Tierra Amarilla, Atacama, Chile
Source: Rock Currier
Description: Green prismatic single crystals
Measured chemistry: Cu_2.00_Cl_1.00_(OH)_3_
x	intensity
374.123	0.192276
383.765	0.233512
393.407	0.252831
403.05	0.20952
412.692	0.163252
422.334	0.141026
431.976	0.14238
441.619	0.150191
451.261	0.14761
460.904	0.132395
470.546	0.121984
480.188	0.127333
489.83	0.0938636
499.473	0.10128
509.115	0.128443
518.758	0.106381
528.4	0.065423
538.042	0.0462537
547.684	0.0467381
557.327	0.0553919
566.969	0.0694328
576.611	0.0894352
586.254	0.114566
595.896	0.117166
605.538	0.0921604
615.181	0.0542616
624.823	0.0317957
634.466	0.0272184
644.108	0.0264461
653.75	0.0268388
663.393	0.0272308
673.035	0.0272159
682.677	0.0282088
692.319	0.0300273
701.962	0.0324291
711.604	0.0340598
721.246	0.035801
730.889	0.0368077
740.531	0.0382168
750.173	0.0398518
759.816	0.0422125
769.458	0.0460628
779.101	0.050951
788.743	0.0572768
798.385	0.0680588
808.028	0.0884178
817.67	0.120726
827.312	0.110236
836.955	0.142355
846.597	0.174405
856.239	0.113417
865.881	0.10368
875.524	0.100592
885.166	0.139411
894.808	0.151466
904.451	0.106476
914.093	0.124037
923.736	0.0738182
933.378	0.0724923
943.02	0.104958
952.663	0.088976
962.305	0.0590419
971.947	0.071094
981.59	0.107746
991.232	0.0649878
1000.87	0.0348132
1010.52	0.0312205
1020.16	0.0307653
1029.8	0.0318238
1039.44	0.0327069
1049.09	0.032202
1058.73	0.0315174
1068.37	0.0316532
1078.01	0.0318061
1087.65	0.0316424
1097.3	0.0314373
1106.94	0.0311947
1116.58	0.0315403
1126.22	0.0318383
1135.87	0.0330237
1145.51	0.0347917
1155.15	0.0369499
1164.79	0.0370935
1174.44	0.0347571
1184.08	0.0328419
1193.72	0.031852
1203.36	0.031185
1213.01	0.0310759
1222.65	0.0313448
1232.29	0.0311515
1241.93	0.0312588
1251.58	0.0314757
1261.22	0.0319564
1270.86	0.0322415
1280.5	0.0330533
1290.14	0.0333545
1299.79	0.0338745
1309.43	0.0341534
1319.07	0.0342961
1328.71	0.0346558
1338.36	0.0351
1348	0.0355911
1357.64	0.0360407
1367.28	0.0365345
1376.92	0.0371171
1386.57	0.0375023
1396.21	0.0380759
1405.85	0.038471
1415.49	0.038954
1425.14	0.0394633
1434.78	0.0401038
1444.42	0.0403732
1454.06	0.0412673
1463.71	0.0415846
1473.35	0.0413302
1482.99	0.0411409
1492.63	0.0416212
1502.28	0.0422687
1511.92	0.0427939
1521.56	0.0438068
1531.2	0.0442418
1540.85	0.0459842
1550.49	0.0463143
1560.13	0.0481185
1569.77	0.0484255
1579.41	0.0495724
1589.06	0.0508849
1598.7	0.0528936
1608.34	0.055285
1617.98	0.0592317
1627.63	0.0637604
1637.27	0.071148
1646.91	0.079491
1656.55	0.0791348
1666.19	0.0676313
1675.84	0.0612712
1685.48	0.0591352
1695.12	0.0591587
1704.77	0.0597505
1714.41	0.0609666
1724.05	0.0613428
1733.69	0.06049
1743.33	0.0562241
1752.98	0.0549967
1762.62	0.0581834
1772.26	0.0600282
1781.9	0.0555022
1791.55	0.0537509
1801.19	0.0528518
1810.83	0.052928
1820.47	0.0529481
1830.12	0.0530383
1839.76	0.0535338
1849.4	0.053897
1859.04	0.0527437
1868.68	0.0511301
1878.33	0.0505461
1887.97	0.0505396
1897.61	0.0504592
1907.25	0.0513564
1916.9	0.0526564
1926.54	0.0544969
1936.18	0.0574811
1945.82	0.0600961
1955.46	0.0577008
1965.11	0.0525216
1974.75	0.0490379
1984.39	0.0505389
1994.04	0.0491797
2003.68	0.0492966
2013.32	0.0504374
2022.96	0.0496325
2032.6	0.0503561
2042.25	0.0507728
2051.89	0.0505459
2061.53	0.0510996
2071.17	0.0515454
2080.82	0.0511342
2090.46	0.0506904
2100.1	0.0523162
2109.74	0.0515997
2119.39	0.0508048
2129.03	0.0502529
2138.67	0.0511474
2148.31	0.0507652
2157.95	0.0498093
2167.6	0.053264
2177.24	0.0539505
2186.88	0.0542409
2196.52	0.0552124
2206.17	0.055418
2215.81	0.0557337
2225.45	0.0564554
2235.09	0.0562228
2244.74	0.0564915
2254.38	0.0579119
2264.02	0.0575494
2273.66	0.0575476
2283.3	0.0585317
2292.95	0.0581871
2302.59	0.0588676
2312.23	0.0590618
2321.87	0.0608319
2331.52	0.0601758
2341.16	0.0602398
2350.8	0.05979
2360.44	0.0618754
2370.09	0.0612209
2379.73	0.0603454
2389.37	0.0604707
2399.01	0.0611482
2408.66	0.0616972
2418.3	0.0619126
2427.94	0.0622947
2437.58	0.0634262
2447.22	0.0633694
2456.87	0.0636407
2466.51	0.0642131
2476.15	0.0648347
2485.79	0.0653576
2495.44	0.0650747
2505.08	0.0655348
2514.72	0.0661693
2524.36	0.0660789
2534.01	0.0664002
2543.65	0.0669284
2553.29	0.0678564
2562.93	0.0676687
2572.57	0.0682231
2582.22	0.0688062
2591.86	0.0690951
2601.5	0.0694483
2611.14	0.0703103
2620.79	0.0707523
2630.43	0.0709203
2640.07	0.0717182
2649.71	0.0722836
2659.36	0.0724202
2669	0.0726497
2678.64	0.0730379
2688.28	0.0739772
2697.93	0.0742978
2707.57	0.0747149
2717.21	0.0753901
2726.85	0.0765133
2736.49	0.0767927
2746.14	0.0776069
2755.78	0.0784293
2765.42	0.0787703
2775.06	0.0801694
2784.71	0.0804648
2794.35	0.0809515
2803.99	0.082381
2813.63	0.0832737
2823.28	0.0843471
2832.92	0.0857101
2842.56	0.0879372
2852.2	0.089887
2861.84	0.0899149
2871.49	0.090747
2881.13	0.0906942
2890.77	0.0925508
2900.41	0.0948091
2910.06	0.0971709
2919.7	0.100117
2929.34	0.10064
2938.98	0.0987677
2948.62	0.100736
2958.27	0.102311
2967.91	0.101087
2977.55	0.100788
2987.2	0.101575
2996.84	0.102805
3006.48	0.104992
3016.12	0.10672
3025.76	0.108893
3035.41	0.110951
3045.05	0.113321
3054.69	0.116313
3064.33	0.119186
3073.98	0.121958
3083.62	0.124648
3093.26	0.128137
3102.9	0.133471
3112.55	0.138977
3122.19	0.145378
3131.83	0.152253
3141.47	0.161066
3151.11	0.168703
3160.76	0.176354
3170.4	0.18362
3180.04	0.191827
3189.68	0.197837
3199.33	0.201095
3208.97	0.203078
3218.61	0.205513
3228.25	0.20619
3237.9	0.21339
3247.54	0.227771
3257.18	0.247813
3266.82	0.270461
3276.47	0.293827
3286.11	0.323108
3295.75	0.359215
3305.39	0.396334
3315.03	0.437956
3324.68	0.479
3334.32	0.48133
3343.96	0.408047
3353.6	0.333149
3363.25	0.247586
3372.89	0.157308
3382.53	0.120602
3392.17	0.120678
3401.82	0.133883
3411.46	0.160182
3421.1	0.1977
3430.74	0.249878
3440.39	0.275027
3450.03	0.201885
3459.67	0.10983
3469.31	0.0710114
3478.95	0.0522936
3488.6	0.0400891
3498.24	0.0306871
3507.88	0.0255449
3517.52	0.0231419
3527.17	0.0212677
3536.81	0.0216897
3546.45	0.0213373
3556.09	0.0233856
3565.74	0.0246204
3575.38	0.0262558
3585.02	0.0270757
3594.66	0.0276724
3604.3	0.0257894
3613.95	0.0271251
3623.59	0.0272923
3633.23	0.0279725
3642.87	0.0287845
3652.52	0.0292989
3662.16	0.0294319
3671.8	0.031307
3681.44	0.031826
3691.09	0.0334831
3700.73	0.0342804
3710.37	0.035123
3720.01	0.0364106
3729.66	0.0363482
3739.3	0.0372077
3748.94	0.0395719
3758.58	0.0387301
3768.22	0.0399849
3777.87	0.0401893
3787.51	0.0402303
3797.15	0.0414425
3806.79	0.0415785
3816.44	0.0430929
3826.08	0.0425513
3835.72	0.0438065
3845.36	0.0437226
3855.01	0.0453652
3864.65	0.0443557
3874.29	0.0444388
3883.93	0.0456658
3893.57	0.0444063
3903.22	0.0456392
3912.86	0.0458791
3922.5	0.0459478
3932.14	0.0462497
3941.79	0.0449123
3951.43	0.0461566
3961.07	0.0458841
3970.71	0.0460782
3980.36	0.0463933
3990	0.0482175
3999.64	0.0476553
