Measurement: Infrared, Infrared Data Processed
Mineral: Axinite-(Mn)
Rruff sample: R050299
Ideal chemistry: Ca_4_Mn^2+^_2_Al_4_[B_2_Si_8_O_30_](OH)_2_
Locality: Dalnegorsk, Russia
Source: Eugene Schlepp
Description: Brown axe-head-shaped crystal
Measured chemistry: Ca_2.00_(Mn_0.64_Fe^2+^_0.34_Mg_0.02_)Al_2.00_B_1.00_Si_4.00_O_15_(OH)
x	intensity
399.193	0.0915636
408.835	0.107645
418.477	0.111505
428.12	0.12096
437.762	0.107728
447.404	0.120104
457.047	0.109907
466.689	0.0925628
476.331	0.0827002
485.974	0.0698247
495.616	0.0512344
505.258	0.076526
514.901	0.0855786
524.543	0.069743
534.185	0.0853146
543.828	0.101126
553.47	0.101057
563.112	0.0883612
572.755	0.0901528
582.397	0.0935802
592.039	0.0816329
601.682	0.0765651
611.324	0.0582399
620.966	0.0410932
630.609	0.034959
640.251	0.0290643
649.893	0.0245226
659.536	0.0361613
669.178	0.036509
678.82	0.026186
688.463	0.0209532
698.105	0.0195029
707.747	0.0199873
717.39	0.0213806
727.032	0.0227559
736.674	0.0250916
746.317	0.0285058
755.959	0.0335757
765.601	0.0411777
775.244	0.0527866
784.886	0.0482084
794.528	0.0475107
804.171	0.0585321
813.813	0.0735851
823.455	0.0834372
833.098	0.0864624
842.74	0.103584
852.382	0.11428
862.025	0.119251
871.667	0.127093
881.309	0.123434
890.952	0.117846
900.594	0.103245
910.236	0.107976
919.879	0.119419
929.521	0.120212
939.163	0.113167
948.806	0.0996868
958.448	0.0790231
968.09	0.0642179
977.733	0.067977
987.375	0.068557
997.017	0.0761067
1006.66	0.0769894
1016.3	0.0637618
1025.94	0.0754852
1035.59	0.0903802
1045.23	0.0830705
1054.87	0.0732584
1064.51	0.0799956
1074.16	0.0710631
1083.8	0.0516636
1093.44	0.0417955
1103.08	0.0361026
1112.72	0.0291128
1122.37	0.0209069
1132.01	0.0158218
1141.65	0.011012
1151.3	0.00632566
1160.94	0.00355721
1170.58	0.00212359
1180.22	0.00121096
1189.86	0.000743815
1199.51	-2.9934e-05
1209.15	-0.000311399
1218.79	-0.000637603
1228.43	-0.000999477
1238.08	-0.00111546
1247.72	-0.00129114
1257.36	-0.0010265
1267	-0.00129204
1276.64	-0.00136702
1286.29	-0.00130513
1295.93	-0.00121187
1305.57	-0.000894007
1315.21	-0.00120222
1324.86	-0.00141387
1334.5	-0.00158111
1344.14	-0.00160417
1353.78	-0.00163226
1363.43	-0.00153997
1373.07	-0.00156668
1382.71	-0.00166003
1392.35	-0.00140891
1401.99	-0.00126516
1411.64	-0.00119036
1421.28	-0.00110269
1430.92	-0.00125066
1440.57	-0.0014752
1450.21	-0.00165118
1459.85	-0.00182175
1469.49	-0.00199929
1479.13	-0.00176233
1488.78	-0.00152063
1498.42	-0.00139119
1508.06	-0.00107782
1517.7	-0.00143333
1527.35	-0.00160829
1536.99	-0.00129403
1546.63	-0.00142891
1556.27	-0.000855746
1565.91	-0.0010922
1575.56	-0.000518033
1585.2	-0.00109074
1594.84	-0.00112467
1604.48	-0.0012598
1614.13	-0.00139373
1623.77	-0.00136877
1633.41	-0.00166242
1643.05	-0.00201416
1652.7	-0.000589501
1662.34	-0.001727
1671.98	-0.00208665
1681.62	-0.00185094
1691.27	-0.00218247
1700.91	-0.00159998
1710.55	-0.0026363
1720.19	-0.00265294
1729.84	-0.00320901
1739.48	-0.00363112
1749.12	-0.00381707
1758.76	-0.00338757
1768.4	-0.00284991
1778.05	-0.00334789
1787.69	-0.0032288
1797.33	-0.00298302
1806.97	-0.00313959
1816.62	-0.00309884
1826.26	-0.0030732
1835.9	-0.00353194
1845.54	-0.00335685
1855.18	-0.0035873
1864.83	-0.0037194
1874.47	-0.00363511
1884.11	-0.00365182
1893.75	-0.00358572
1903.4	-0.00327941
1913.04	-0.00314731
1922.68	-0.00332963
1932.32	-0.00308529
1941.97	-0.00275813
1951.61	-0.00302891
1961.25	-0.00381148
1970.89	-0.00205499
1980.54	-0.00260772
1990.18	-0.00476264
1999.82	-0.00323465
2009.46	-0.00416595
2019.11	-0.00407271
2028.75	-0.00215963
2038.39	-0.00449065
2048.03	-0.00441969
2057.67	-0.00463904
2067.32	-0.00442035
2076.96	-0.00441759
2086.6	-0.00474215
2096.24	-0.00459935
2105.89	-0.00361684
2115.53	-0.00404594
2125.17	-0.00459291
2134.81	-0.00424349
2144.45	-0.00548808
2154.1	-0.00393162
2163.74	-0.00455379
2173.38	-0.00351695
2183.02	-0.00441631
2192.67	-0.00342718
2202.31	-0.00285228
2211.95	-0.00365288
2221.59	-0.00370653
2231.24	-0.00395331
2240.88	-0.00348613
2250.52	-0.00460802
2260.16	-0.00430749
2269.8	-0.00382298
2279.45	-0.00382594
2289.09	-0.00393318
2298.73	-0.00410837
2308.38	-0.00423122
2318.02	-0.00375076
2327.66	-0.00308585
2337.3	-0.00281332
2346.94	-0.00351428
2356.59	-0.00284943
2366.23	-0.00236462
2375.87	-0.00395202
2385.51	-0.0046107
2395.16	-0.00429301
2404.8	-0.00511008
2414.44	-0.00479575
2424.08	-0.00516754
2433.72	-0.00525444
2443.37	-0.00510754
2453.01	-0.00463193
2462.65	-0.00469743
2472.29	-0.00512151
2481.94	-0.00514485
2491.58	-0.00555758
2501.22	-0.00508471
2510.86	-0.00553887
2520.51	-0.00564531
2530.15	-0.00567467
2539.79	-0.00592248
2549.43	-0.0055211
2559.07	-0.00551937
2568.72	-0.00573764
2578.36	-0.00585708
2588	-0.00584486
2597.64	-0.00591133
2607.29	-0.00579044
2616.93	-0.00577768
2626.57	-0.00598848
2636.21	-0.00585126
2645.86	-0.00577444
2655.5	-0.00614552
2665.14	-0.0057427
2674.78	-0.00607031
2684.43	-0.00595441
2694.07	-0.00598092
2703.71	-0.0061507
2713.35	-0.00633779
2722.99	-0.00606484
2732.64	-0.00601684
2742.28	-0.00613071
2751.92	-0.00609745
2761.56	-0.00604969
2771.21	-0.00584337
2780.85	-0.00612838
2790.49	-0.00630394
2800.13	-0.005992
2809.78	-0.00632763
2819.42	-0.00624624
2829.06	-0.00629947
2838.7	-0.00714549
2848.34	-0.00982817
2857.99	-0.00916969
2867.63	-0.00816126
2877.27	-0.00781157
2886.91	-0.00833543
2896.56	-0.00863814
2906.2	-0.0094791
2915.84	-0.0122693
2925.48	-0.0127992
2935.13	-0.0112576
2944.77	-0.00961005
2954.41	-0.00921439
2964.05	-0.00859438
2973.7	-0.00826519
2983.34	-0.00776254
2992.98	-0.00819265
3002.62	-0.00840484
3012.26	-0.00748242
3021.91	-0.00760129
3031.55	-0.00748917
3041.19	-0.00780086
3050.83	-0.007639
3060.48	-0.00744984
3070.12	-0.00806649
3079.76	-0.00735783
3089.4	-0.00740534
3099.05	-0.00749191
3108.69	-0.00739121
3118.33	-0.00681814
3127.97	-0.00744073
3137.61	-0.0073691
3147.26	-0.00734148
3156.9	-0.00723603
3166.54	-0.00699827
3176.18	-0.00717362
3185.83	-0.00720509
3195.47	-0.0072897
3205.11	-0.00742835
3214.75	-0.00738037
3224.4	-0.00799202
3234.04	-0.00751264
3243.68	-0.00811349
3253.32	-0.00776108
3262.97	-0.00789969
3272.61	-0.00766705
3282.25	-0.00761406
3291.89	-0.00771435
3301.53	-0.00806801
3311.18	-0.00785026
3320.82	-0.00735455
3330.46	-0.00661676
3340.1	-0.00651564
3349.75	-0.00520176
3359.39	-0.004395
3369.03	-0.00246563
3378.67	0.000409267
3388.32	0.00296923
3397.96	0.00106659
3407.6	-0.00445873
3417.24	-0.00739874
3426.89	-0.00982022
3436.53	-0.0106502
3446.17	-0.0106403
3455.81	-0.0114741
3465.45	-0.0115087
3475.1	-0.0119233
3484.74	-0.0119256
3494.38	-0.0122744
3504.02	-0.0115032
3513.67	-0.0121067
3523.31	-0.0126642
3532.95	-0.0124797
3542.59	-0.0126345
3552.24	-0.0133328
3561.88	-0.0132292
3571.52	-0.0131827
3581.16	-0.0132474
3590.8	-0.0138232
3600.45	-0.0139001
3610.09	-0.013114
3619.73	-0.0135838
3629.37	-0.013565
3639.02	-0.0145999
3648.66	-0.013514
3658.3	-0.0147578
3667.94	-0.0143898
3677.59	-0.0157062
3687.23	-0.015016
3696.87	-0.0155646
3706.51	-0.0157325
3716.16	-0.0147933
3725.8	-0.0154233
3735.44	-0.0147641
3745.08	-0.0145857
3754.72	-0.0165806
3764.37	-0.016442
3774.01	-0.0157002
3783.65	-0.0172928
3793.29	-0.0174817
3802.94	-0.0161751
3812.58	-0.0170727
3822.22	-0.0154194
3831.86	-0.0164802
3841.51	-0.0172372
3851.15	-0.0154497
3860.79	-0.0174245
3870.43	-0.0162092
3880.07	-0.0168423
3889.72	-0.0179778
3899.36	-0.0172629
3909	-0.0175673
3918.64	-0.0174715
3928.29	-0.0185481
3937.93	-0.0173642
3947.57	-0.0179688
3957.21	-0.0189823
3966.86	-0.0184236
3976.5	-0.0183984
3986.14	-0.0185606
3995.78	-0.0184218
