Measurement: Infrared, Infrared Data Processed
Mineral: Axinite-(Fe)
Rruff sample: R050026
Ideal chemistry: Ca_4_Fe^2+^_2_Al_4_[B_2_Si_8_O_30_](OH)_2_
Locality: Pouyva mine, Polar Urals, Western Siberian Region, Russia
Source: Rock Currier
Description: Brown transparent flat crystal
Measured chemistry: Ca_2.00_(Fe^2+^_0.61_Mn_0.26_Mg_0.13_)Al_2.00_BSi_4_O_15_(OH)
x	intensity
399.193	0
408.835	0.130961
418.477	0.132103
428.12	0.145075
437.762	0.123657
447.404	0.135013
457.047	0.126065
466.689	0.104939
476.331	0.0987482
485.974	0.0835791
495.616	0.0648069
505.258	0.0926447
514.901	0.109621
524.543	0.0964581
534.185	0.107689
543.828	0.119336
553.47	0.116939
563.112	0.104358
572.755	0.104357
582.397	0.110033
592.039	0.0924055
601.682	0.0856466
611.324	0.06665
620.966	0.0462028
630.609	0.0396777
640.251	0.035034
649.893	0.0259768
659.536	0.0407979
669.178	0.0382939
678.82	0.0280116
688.463	0.0222513
698.105	0.0207817
707.747	0.0228784
717.39	0.0264466
727.032	0.0311163
736.674	0.0382262
746.317	0.047821
755.959	0.0608777
765.601	0.0759681
775.244	0.0910256
784.886	0.0846153
794.528	0.0855006
804.171	0.101069
813.813	0.119714
823.455	0.135802
833.098	0.138161
842.74	0.148936
852.382	0.157172
862.025	0.155402
871.667	0.159269
881.309	0.154626
890.952	0.147717
900.594	0.133541
910.236	0.137526
919.879	0.150286
929.521	0.147519
939.163	0.137994
948.806	0.123617
958.448	0.10146
968.09	0.0835121
977.733	0.0805702
987.375	0.0837123
997.017	0.0929677
1006.66	0.0969553
1016.3	0.0803368
1025.94	0.0902657
1035.59	0.110638
1045.23	0.105668
1054.87	0.0924261
1064.51	0.0922592
1074.16	0.0826573
1083.8	0.0604494
1093.44	0.0507346
1103.08	0.0448761
1112.72	0.036835
1122.37	0.0284265
1132.01	0.022219
1141.65	0.0173517
1151.3	0.0117654
1160.94	0.00827719
1170.58	0.00631476
1180.22	0.00554219
1189.86	0.00458768
1199.51	0.00425264
1209.15	0.00416017
1218.79	0.00377976
1228.43	0.0037361
1238.08	0.00345491
1247.72	0.00375799
1257.36	0.00347314
1267	0.00340332
1276.64	0.00364587
1286.29	0.00370837
1295.93	0.00406927
1305.57	0.00423332
1315.21	0.00492657
1324.86	0.00501377
1334.5	0.00552654
1344.14	0.00631947
1353.78	0.0064641
1363.43	0.00692516
1373.07	0.00757853
1382.71	0.00853528
1392.35	0.00984974
1401.99	0.0104629
1411.64	0.0104427
1421.28	0.0101314
1430.92	0.0104111
1440.57	0.0105653
1450.21	0.0101396
1459.85	0.00917301
1469.49	0.00855495
1479.13	0.00824937
1488.78	0.00759592
1498.42	0.00746653
1508.06	0.00712052
1517.7	0.00726059
1527.35	0.00757019
1536.99	0.00786814
1546.63	0.0081056
1556.27	0.00806766
1565.91	0.00861347
1575.56	0.00812468
1585.2	0.00820336
1594.84	0.00793806
1604.48	0.00776372
1614.13	0.00753973
1623.77	0.00754703
1633.41	0.00697217
1643.05	0.00693739
1652.7	0.00638933
1662.34	0.00697596
1671.98	0.00694155
1681.62	0.00653225
1691.27	0.00702204
1700.91	0.00616514
1710.55	0.00643093
1720.19	0.00691611
1729.84	0.00654326
1739.48	0.00659613
1749.12	0.00669534
1758.76	0.00701668
1768.4	0.00673214
1778.05	0.00691377
1787.69	0.00681681
1797.33	0.00715676
1806.97	0.00645349
1816.62	0.00623458
1826.26	0.00662054
1835.9	0.00662955
1845.54	0.00662909
1855.18	0.0071958
1864.83	0.00618978
1874.47	0.00659405
1884.11	0.00602984
1893.75	0.00629804
1903.4	0.00649075
1913.04	0.0071382
1922.68	0.00751694
1932.32	0.00640819
1941.97	0.00677852
1951.61	0.0053658
1961.25	0.00473005
1970.89	0.00289882
1980.54	0.00596501
1990.18	0.0059719
1999.82	0.00444714
2009.46	0.00581793
2019.11	0.00267852
2028.75	0.00407407
2038.39	0.00474683
2048.03	0.00680257
2057.67	0.00701465
2067.32	0.00541095
2076.96	0.00812119
2086.6	0.00737719
2096.24	0.00618587
2105.89	0.00671866
2115.53	0.00710983
2125.17	0.0071263
2134.81	0.00405816
2144.45	0.00680926
2154.1	0.00209919
2163.74	0.00954528
2173.38	0.00712922
2183.02	0.00909992
2192.67	0.00954681
2202.31	0.0091864
2211.95	0.00950059
2221.59	0.0122481
2231.24	0.0101677
2240.88	0.0115874
2250.52	0.0103596
2260.16	0.0129487
2269.8	0.0111437
2279.45	0.0128024
2289.09	0.0134055
2298.73	0.0127689
2308.38	0.0128361
2318.02	0.0137785
2327.66	0.0134741
2337.3	0.0131709
2346.94	0.0134007
2356.59	0.0127788
2366.23	0.0119355
2375.87	0.0126965
2385.51	0.0124183
2395.16	0.0127078
2404.8	0.0133238
2414.44	0.0130117
2424.08	0.0129146
2433.72	0.0132083
2443.37	0.0134933
2453.01	0.0130252
2462.65	0.0134162
2472.29	0.0128103
2481.94	0.013122
2491.58	0.0132367
2501.22	0.0139462
2510.86	0.013298
2520.51	0.0137209
2530.15	0.0146549
2539.79	0.0144133
2549.43	0.0151807
2559.07	0.0135996
2568.72	0.0144927
2578.36	0.0145032
2588	0.014575
2597.64	0.0139751
2607.29	0.0148292
2616.93	0.0151357
2626.57	0.0142654
2636.21	0.0159381
2645.86	0.0156078
2655.5	0.0133587
2665.14	0.0144972
2674.78	0.0149493
2684.43	0.0138262
2694.07	0.013626
2703.71	0.0142685
2713.35	0.0139008
2722.99	0.0146672
2732.64	0.0153483
2742.28	0.0134087
2751.92	0.0145036
2761.56	0.0155607
2771.21	0.0152391
2780.85	0.0152692
2790.49	0.0137713
2800.13	0.0157258
2809.78	0.0148604
2819.42	0.0148664
2829.06	0.0156344
2838.7	0.0148622
2848.34	0.0154793
2857.99	0.013012
2867.63	0.0150503
2877.27	0.0163857
2886.91	0.016007
2896.56	0.0156788
2906.2	0.0160159
2915.84	0.015521
2925.48	0.0134588
2935.13	0.013876
2944.77	0.0144839
2954.41	0.0150021
2964.05	0.0139029
2973.7	0.0151943
2983.34	0.0162548
2992.98	0.0168768
3002.62	0.0168117
3012.26	0.0154765
3021.91	0.0157674
3031.55	0.017319
3041.19	0.0160713
3050.83	0.0163224
3060.48	0.0160732
3070.12	0.0181749
3079.76	0.0181903
3089.4	0.0173046
3099.05	0.0172191
3108.69	0.0176991
3118.33	0.0186404
3127.97	0.0170315
3137.61	0.0192903
3147.26	0.0178982
3156.9	0.0186154
3166.54	0.0187634
3176.18	0.0188823
3185.83	0.017067
3195.47	0.0206556
3205.11	0.0173862
3214.75	0.0197905
3224.4	0.020136
3234.04	0.0203873
3243.68	0.0188126
3253.32	0.0208536
3262.97	0.0231405
3272.61	0.0207561
3282.25	0.0226732
3291.89	0.0227724
3301.53	0.0247888
3311.18	0.0225515
3320.82	0.0261263
3330.46	0.0265799
3340.1	0.029242
3349.75	0.0297014
3359.39	0.0356648
3369.03	0.0407924
3378.67	0.0450527
3388.32	0.039539
3397.96	0.0296322
3407.6	0.0247505
3417.24	0.0181608
3426.89	0.0201495
3436.53	0.0176279
3446.17	0.0203153
3455.81	0.0185492
3465.45	0.0189893
3475.1	0.0191958
3484.74	0.0185955
3494.38	0.0181822
3504.02	0.0181321
3513.67	0.0198331
3523.31	0.0159067
3532.95	0.0179262
3542.59	0.0180196
3552.24	0.0160933
3561.88	0.0205019
3571.52	0.0176168
3581.16	0.0156765
3590.8	0.0180566
3600.45	0.0185681
3610.09	0.0180752
3619.73	0.0166603
3629.37	0.0142472
3639.02	0.0136404
3648.66	0.0171761
3658.3	0.0178007
3667.94	0.0150031
3677.59	0.0150727
3687.23	0.0157219
3696.87	0.0207397
3706.51	0.0160791
3716.16	0.0214759
3725.8	0.0180308
3735.44	0.0177092
3745.08	0.0206409
3754.72	0.0186504
3764.37	0.0179631
3774.01	0.0174265
3783.65	0.0251508
3793.29	0.0188585
3802.94	0.0210876
3812.58	0.0194553
3822.22	0.018743
3831.86	0.0162356
3841.51	0.0232006
3851.15	0.019064
3860.79	0.018522
3870.43	0.0168244
3880.07	0.018955
3889.72	0.0249568
3899.36	0.01809
3909	0.0220551
3918.64	0.0219205
3928.29	0.0247294
3937.93	0.0210028
3947.57	0.0218639
3957.21	0.0217675
3966.86	0.0202029
3976.5	0.0226739
3986.14	0.0194118
3995.78	0.0234459
