Measurement: Infrared, Infrared Data Processed
Mineral: Azurite
Rruff sample: R050497
Ideal chemistry: Cu^2+^_3_(CO_3_)_2_(OH)_2_
Locality: Tsumeb mine, Tsumeb, Otavi District, Oshikoto, Namibia
Source: Marcus Origlieri
Description: Blue prismatic single crystal
Measured chemistry: Cu_3.00_(CO_3_)_2_(OH)_2_
x	intensity
50.1401	0.0168497
52.0686	0.0106914
53.9971	0.00969941
55.9255	0.0111572
57.854	0.0148263
59.7825	0.014514
61.7109	0.0151031
63.6394	0.0149636
65.5679	0.0135498
67.4963	0.0146422
69.4248	0.017639
71.3533	0.0169521
73.2817	0.0180133
75.2102	0.0176274
77.1387	0.0170326
79.0671	0.0178527
80.9956	0.0187774
82.9241	0.0191407
84.8525	0.0185815
86.781	0.018493
88.7095	0.0192476
90.6379	0.0191349
92.5664	0.0197805
94.4948	0.0206666
96.4233	0.0210502
98.3518	0.0207319
100.28	0.0212375
102.209	0.022619
104.137	0.0241669
106.066	0.0245538
107.994	0.0244941
109.923	0.0250939
111.851	0.026865
113.779	0.0272612
115.708	0.0276748
117.636	0.0292188
119.565	0.0319897
121.493	0.0340913
123.422	0.0358967
125.35	0.0384715
127.279	0.0395772
129.207	0.0380474
131.136	0.0348138
133.064	0.0334936
134.993	0.0368084
136.921	0.0371291
138.85	0.0337291
140.778	0.0334022
142.707	0.0340079
144.635	0.0314268
146.563	0.0280275
148.492	0.0268922
150.42	0.0286208
152.349	0.0297315
154.277	0.0291385
156.206	0.0304752
158.134	0.0327195
160.063	0.0338668
161.991	0.0350155
163.92	0.0362911
165.848	0.0373951
167.777	0.038678
169.705	0.0400953
171.633	0.039417
173.562	0.037856
175.49	0.0378743
177.419	0.0388372
179.347	0.0401879
181.276	0.0430709
183.204	0.0457565
185.133	0.0479542
187.061	0.0485066
188.99	0.045892
190.918	0.0411126
192.847	0.0392999
194.775	0.0404489
196.704	0.0414822
198.632	0.0409123
200.56	0.0390744
202.489	0.0350256
204.417	0.0302534
206.346	0.0273663
208.274	0.026093
210.203	0.0263015
212.131	0.0270862
214.06	0.0282413
215.988	0.0295596
217.917	0.0311685
219.845	0.0329946
221.774	0.0341918
223.702	0.0357939
225.631	0.0376447
227.559	0.0397054
229.488	0.0416075
231.416	0.0435741
233.344	0.0456423
235.273	0.048198
237.201	0.0503155
239.13	0.0502169
241.058	0.0471538
242.987	0.0441879
244.915	0.0432952
246.844	0.0447035
248.772	0.0474271
250.701	0.0479825
252.629	0.0464428
254.558	0.046872
256.486	0.0462787
258.414	0.0437962
260.343	0.0434494
262.271	0.0451639
264.2	0.0465566
266.128	0.0476775
268.057	0.0488384
269.985	0.0498518
271.914	0.0511086
273.842	0.0525705
275.771	0.0540441
277.699	0.0553555
279.628	0.056508
281.556	0.0579961
283.485	0.0596542
285.413	0.0608542
287.341	0.0622897
289.27	0.0641994
291.198	0.0662201
293.127	0.0680256
295.055	0.0696727
296.984	0.0714601
298.912	0.0731746
300.841	0.0747976
302.769	0.0761891
304.698	0.0764031
306.626	0.0753502
308.555	0.0736502
310.483	0.0713736
312.411	0.0688664
314.34	0.0660951
316.269	0.0636691
318.197	0.0613316
320.125	0.0589863
322.054	0.0568152
323.982	0.05492
325.911	0.0538968
327.839	0.0535659
329.768	0.0537009
331.696	0.0544842
333.625	0.0558135
335.553	0.057611
337.482	0.0594209
339.41	0.0611391
341.339	0.0625337
343.267	0.0629676
345.195	0.0624926
347.124	0.0617706
349.052	0.0602765
350.981	0.0582646
352.909	0.0557181
354.838	0.0524445
356.766	0.0495137
358.695	0.0476049
360.623	0.0464037
362.552	0.0458813
364.48	0.0459182
366.409	0.0465154
368.337	0.0474376
370.265	0.0486834
372.194	0.0499481
374.122	0.0511894
376.051	0.052505
377.979	0.0535849
379.908	0.054747
381.836	0.0562485
383.765	0.0577977
385.693	0.059322
387.622	0.06121
389.55	0.0634533
391.479	0.0655197
393.407	0.067714
395.336	0.0698891
397.264	0.0717743
399.192	0.07326
401.121	0.0740109
403.049	0.0737242
404.978	0.072587
406.906	0.0704493
408.835	0.067856
410.763	0.0651215
412.692	0.0625481
414.62	0.0604205
416.549	0.0589803
418.477	0.0580246
420.406	0.0574035
422.334	0.057429
424.262	0.0577135
426.191	0.0580863
428.12	0.0592794
430.048	0.0608641
431.976	0.0628765
433.905	0.0655313
435.833	0.0683154
437.762	0.0711295
439.69	0.0743844
441.619	0.0780147
443.547	0.081453
445.476	0.0846033
447.404	0.0868576
449.333	0.0868578
451.261	0.0852518
453.19	0.0834542
455.118	0.0824792
457.046	0.0815047
458.975	0.0794827
460.903	0.0762533
462.832	0.0721983
464.76	0.0683233
466.689	0.0651086
468.617	0.0621027
470.546	0.0595385
472.474	0.0575729
474.403	0.0568552
476.331	0.0567041
478.26	0.0576403
480.188	0.0594443
482.116	0.0611938
484.045	0.0634243
485.974	0.0656681
487.902	0.0675554
489.83	0.0688714
491.759	0.0691858
493.687	0.0691297
495.616	0.0688109
497.544	0.0678307
499.473	0.0660601
501.401	0.0639809
503.33	0.0611281
505.258	0.0578815
507.187	0.054996
509.115	0.0520013
511.043	0.0493644
512.972	0.0472652
514.9	0.0456389
516.829	0.0443486
518.757	0.0434001
520.686	0.0428702
522.614	0.0419725
524.543	0.0412963
526.471	0.0407756
528.4	0.040468
530.328	0.0401457
532.257	0.039946
534.185	0.0392338
536.114	0.0389517
538.042	0.0390963
539.971	0.0390812
541.899	0.0387972
543.827	0.0383145
545.756	0.0383391
547.684	0.0387852
549.613	0.0386097
551.541	0.0386204
553.47	0.0388524
555.398	0.0392647
557.327	0.0391015
559.255	0.0391446
561.184	0.0394618
563.112	0.0397857
565.041	0.0399821
566.969	0.0399448
568.898	0.0398954
570.826	0.0404165
572.755	0.0406413
574.683	0.0407699
576.611	0.041002
578.54	0.0413874
580.468	0.0417619
582.397	0.0420542
584.325	0.0422409
586.254	0.0423543
588.182	0.0426721
590.111	0.0429919
592.039	0.0428346
593.968	0.0429762
595.896	0.0429896
597.824	0.0424193
599.753	0.0420335
601.682	0.0424995
603.61	0.0424671
605.538	0.0421989
607.467	0.0427778
609.395	0.0439008
611.324	0.0436042
613.252	0.0432394
615.181	0.0438793
617.109	0.045252
619.038	0.0461708
620.966	0.0461295
622.894	0.0460559
624.823	0.0473791
626.751	0.0489257
628.68	0.0505933
630.608	0.0521549
632.537	0.0531862
634.465	0.0536377
636.394	0.0542294
638.322	0.0550071
640.251	0.0554853
642.179	0.0558247
644.108	0.0563483
646.036	0.0567882
647.965	0.0573673
649.893	0.0577154
651.822	0.0580688
653.75	0.0584701
655.678	0.0594192
657.607	0.0604668
659.535	0.0612559
661.464	0.0613891
663.392	0.0614654
665.321	0.0621718
667.249	0.0633064
669.178	0.0644491
671.106	0.0649538
673.035	0.0649325
674.963	0.0655798
676.892	0.066613
678.82	0.06724
680.749	0.067356
682.677	0.0675354
684.606	0.0677891
686.534	0.0680916
688.462	0.0685308
690.391	0.0696097
692.319	0.0711818
694.248	0.0727922
696.176	0.0743125
698.105	0.0763578
700.033	0.076721
