Measurement: Infrared, Infrared Data Processed
Mineral: Babingtonite
Rruff sample: R060083
Ideal chemistry: Ca_2_Fe^2+^Fe^3+^Si_5_O_14_(OH)
Locality: Hampden Quarry, Springfield, Massachusetts, USA
Source: University of Arizona Mineral Museum
Description: Black stubby prismatic crystal associated with quartz
Measured chemistry: Ca_2.00_(Fe^2+^_0.73_Mg_0.21_Mn_0.06_)(Fe^3+^_0.93_Al_0.07_)Si_5.00_O_14_(OH)
x	intensity
399.193	0.168552
408.835	0.180809
418.477	0.241636
428.12	0.25479
437.762	0.246713
447.404	0.221016
457.047	0.223721
466.689	0.198134
476.331	0.171559
485.974	0.2135
495.616	0.230812
505.258	0.214378
514.901	0.186503
524.543	0.159852
534.185	0.141906
543.828	0.144066
553.47	0.142391
563.112	0.0971615
572.755	0.0629621
582.397	0.0450468
592.039	0.0404686
601.682	0.0406571
611.324	0.0452194
620.966	0.0557757
630.609	0.0725255
640.251	0.116341
649.893	0.108883
659.536	0.0920976
669.178	0.0514917
678.82	0.0465266
688.463	0.0494031
698.105	0.0725882
707.747	0.0994153
717.39	0.0666634
727.032	0.0619583
736.674	0.0710087
746.317	0.0905326
755.959	0.120621
765.601	0.127432
775.244	0.0780791
784.886	0.0730901
794.528	0.0797105
804.171	0.0932442
813.813	0.114008
823.455	0.141686
833.098	0.177793
842.74	0.220998
852.382	0.274617
862.025	0.333222
871.667	0.372996
881.309	0.408175
890.952	0.430235
900.594	0.400236
910.236	0.376922
919.879	0.344349
929.521	0.368189
939.163	0.357986
948.806	0.31818
958.448	0.244253
968.09	0.204316
977.733	0.197408
987.375	0.236752
997.017	0.263305
1006.66	0.248266
1016.3	0.248136
1025.94	0.236616
1035.59	0.238547
1045.23	0.218601
1054.87	0.16828
1064.51	0.145423
1074.16	0.140416
1083.8	0.141577
1093.44	0.145208
1103.08	0.117031
1112.72	0.0793853
1122.37	0.0501775
1132.01	0.0313877
1141.65	0.0214342
1151.3	0.0168553
1160.94	0.014179
1170.58	0.0126177
1180.22	0.0110457
1189.86	0.00986679
1199.51	0.00890131
1209.15	0.00853775
1218.79	0.00873754
1228.43	0.00991449
1238.08	0.0131345
1247.72	0.0204752
1257.36	0.0333458
1267	0.04568
1276.64	0.0336251
1286.29	0.0176173
1295.93	0.0102894
1305.57	0.0074982
1315.21	0.00640765
1324.86	0.00616026
1334.5	0.00608441
1344.14	0.00652713
1353.78	0.0067187
1363.43	0.0067959
1373.07	0.00749197
1382.71	0.00823336
1392.35	0.00906795
1401.99	0.0100085
1411.64	0.0108031
1421.28	0.010674
1430.92	0.0114514
1440.57	0.0116703
1450.21	0.0115012
1459.85	0.0108289
1469.49	0.0110934
1479.13	0.0114417
1488.78	0.0106636
1498.42	0.0104625
1508.06	0.00896163
1517.7	0.00965273
1527.35	0.00986714
1536.99	0.00945432
1546.63	0.0100935
1556.27	0.0084467
1565.91	0.0101619
1575.56	0.0082775
1585.2	0.010217
1594.84	0.0105578
1604.48	0.0105185
1614.13	0.0103103
1623.77	0.0102017
1633.41	0.0102755
1643.05	0.0109226
1652.7	0.0064661
1662.34	0.0104503
1671.98	0.0100591
1681.62	0.00962079
1691.27	0.0103831
1700.91	0.00729515
1710.55	0.00990228
1720.19	0.00883988
1729.84	0.00922936
1739.48	0.00777367
1749.12	0.00752669
1758.76	0.00889069
1768.4	0.00860821
1778.05	0.00938456
1787.69	0.00973454
1797.33	0.00932875
1806.97	0.00977339
1816.62	0.00942255
1826.26	0.00970942
1835.9	0.00954468
1845.54	0.00928657
1855.18	0.0102905
1864.83	0.0099582
1874.47	0.00969081
1884.11	0.00954533
1893.75	0.0100565
1903.4	0.0101167
1913.04	0.00994831
1922.68	0.0102183
1932.32	0.0104342
1941.97	0.0106743
1951.61	0.0104055
1961.25	0.0120005
1970.89	0.00960037
1980.54	0.012281
1990.18	0.0100997
1999.82	0.0114144
2009.46	0.0105387
2019.11	0.0114239
2028.75	0.0110652
2038.39	0.0123505
2048.03	0.0121988
2057.67	0.012308
2067.32	0.0119535
2076.96	0.0133329
2086.6	0.013219
2096.24	0.0143228
2105.89	0.0152357
2115.53	0.0151073
2125.17	0.0155116
2134.81	0.0145431
2144.45	0.0159556
2154.1	0.0165393
2163.74	0.0186223
2173.38	0.0191432
2183.02	0.0202533
2192.67	0.0201814
2202.31	0.0215525
2211.95	0.0220276
2221.59	0.0224925
2231.24	0.0236059
2240.88	0.025335
2250.52	0.0265789
2260.16	0.0265328
2269.8	0.0281205
2279.45	0.0291339
2289.09	0.0294703
2298.73	0.0302008
2308.38	0.0305614
2318.02	0.0325617
2327.66	0.0334395
2337.3	0.0335794
2346.94	0.0329451
2356.59	0.0338563
2366.23	0.03402
2375.87	0.0323309
2385.51	0.0318818
2395.16	0.0323968
2404.8	0.0323046
2414.44	0.0320702
2424.08	0.0309294
2433.72	0.0286289
2443.37	0.0265098
2453.01	0.0246565
2462.65	0.022356
2472.29	0.0202383
2481.94	0.0191248
2491.58	0.0183525
2501.22	0.0180514
2510.86	0.0181668
2520.51	0.0180895
2530.15	0.0185459
2539.79	0.0190152
2549.43	0.0202419
2559.07	0.0209052
2568.72	0.0213054
2578.36	0.0215138
2588	0.022662
2597.64	0.0229109
2607.29	0.0234029
2616.93	0.0245133
2626.57	0.0251432
2636.21	0.0253694
2645.86	0.0254427
2655.5	0.0257212
2665.14	0.0260011
2674.78	0.0265873
2684.43	0.0272953
2694.07	0.0275908
2703.71	0.0282095
2713.35	0.0286687
2722.99	0.0292081
2732.64	0.029763
2742.28	0.0303391
2751.92	0.0309411
2761.56	0.0313919
2771.21	0.032048
2780.85	0.032413
2790.49	0.032827
2800.13	0.0330033
2809.78	0.0335836
2819.42	0.034261
2829.06	0.0346031
2838.7	0.0351512
2848.34	0.0336235
2857.99	0.0341359
2867.63	0.0339551
2877.27	0.0332447
2886.91	0.0325282
2896.56	0.0317584
2906.2	0.0308864
2915.84	0.0288601
2925.48	0.0280167
2935.13	0.0277894
2944.77	0.0278439
2954.41	0.0270512
2964.05	0.0266989
2973.7	0.0255915
2983.34	0.0253833
2992.98	0.0252389
3002.62	0.0240592
3012.26	0.0244325
3021.91	0.0237798
3031.55	0.0232352
3041.19	0.023428
3050.83	0.0235378
3060.48	0.0234188
3070.12	0.0235106
3079.76	0.0228747
3089.4	0.0230007
3099.05	0.0229973
3108.69	0.0232373
3118.33	0.0226982
3127.97	0.0226765
3137.61	0.0234078
3147.26	0.0230121
3156.9	0.0232687
3166.54	0.0232595
3176.18	0.0228484
3185.83	0.02263
3195.47	0.0231973
3205.11	0.0228776
3214.75	0.0231863
3224.4	0.0231437
3234.04	0.0232413
3243.68	0.0239064
3253.32	0.0229003
3262.97	0.0228987
3272.61	0.0230504
3282.25	0.022468
3291.89	0.0235853
3301.53	0.0228994
3311.18	0.0234039
3320.82	0.0232623
3330.46	0.0234222
3340.1	0.023091
3349.75	0.0226712
3359.39	0.0230528
3369.03	0.023432
3378.67	0.0233475
3388.32	0.0232851
3397.96	0.0233281
3407.6	0.022209
3417.24	0.0226526
3426.89	0.0228579
3436.53	0.0223587
3446.17	0.0221247
3455.81	0.0223624
3465.45	0.022472
3475.1	0.0224182
3484.74	0.0232588
3494.38	0.0227784
3504.02	0.0214466
3513.67	0.0220507
3523.31	0.021217
3532.95	0.0223692
3542.59	0.0205637
3552.24	0.0208505
3561.88	0.0210699
3571.52	0.0207192
3581.16	0.0196123
3590.8	0.0189626
3600.45	0.0190466
3610.09	0.0177878
3619.73	0.017417
3629.37	0.014706
3639.02	0.0167835
3648.66	0.0127343
3658.3	0.0162228
3667.94	0.0164117
3677.59	0.0149377
3687.23	0.0135036
3696.87	0.0165457
3706.51	0.0174431
3716.16	0.016876
3725.8	0.016071
3735.44	0.0139065
3745.08	0.0105373
3754.72	0.0164133
3764.37	0.0166721
3774.01	0.0182328
3783.65	0.0173305
3793.29	0.0179922
3802.94	0.0155524
3812.58	0.0178671
3822.22	0.0152235
3831.86	0.0162574
3841.51	0.0160559
3851.15	0.0132346
3860.79	0.0167727
3870.43	0.0147056
3880.07	0.0159217
3889.72	0.0169972
3899.36	0.0167089
3909	0.0176521
3918.64	0.0175959
3928.29	0.0175522
3937.93	0.0170023
3947.57	0.0177298
3957.21	0.0184074
3966.86	0.017742
3976.5	0.0180578
3986.14	0.0180063
3995.78	0.0178639
