Measurement: Infrared, Infrared Data Processed
Mineral: Barrerite
Rruff sample: R050135
Ideal chemistry: Na_2_(Al_2_Si_7_)O_18_6H_2_O
Locality: Kuiu Island, Alaska, USA
Source: Ben Norton
Description: Colorless laminar crystals
Measured chemistry: (Na_4.49_K_1.30_Ca_1.23_[box]_0.98_)_Σ=8_(Si_27.75_Al_8.25_)O_72_·19H_2_O
x	intensity
50.1401	0.00416269
52.0686	0.00423166
53.9971	0.00252486
55.9255	0.00327388
57.854	0.00448719
59.7825	0.00362983
61.7109	0.00358804
63.6394	0.00544646
65.5679	0.00452493
67.4963	0.00417473
69.4248	0.00391748
71.3533	0.00465467
73.2817	0.0056128
75.2102	0.00524182
77.1387	0.00495081
79.0671	0.00515832
80.9956	0.00568531
82.9241	0.00603639
84.8525	0.00619184
86.781	0.00569598
88.7095	0.00578212
90.6379	0.0060557
92.5664	0.00613353
94.4948	0.00618315
96.4233	0.00671744
98.3518	0.00700342
100.28	0.00672945
102.209	0.00663513
104.137	0.00683715
106.066	0.00689503
107.994	0.00672979
109.923	0.00661278
111.851	0.00704059
113.779	0.00725716
115.708	0.00737546
117.636	0.00743933
119.565	0.00768731
121.493	0.00722817
123.422	0.00722386
125.35	0.00778071
127.279	0.0084851
129.207	0.00847936
131.136	0.00853896
133.064	0.0091562
134.993	0.00946595
136.921	0.00910812
138.85	0.00898912
140.778	0.00893891
142.707	0.00908907
144.635	0.00893773
146.563	0.00886876
148.492	0.00916453
150.42	0.00951461
152.349	0.00941911
154.277	0.00918405
156.206	0.00949922
158.134	0.010014
160.063	0.00981639
161.991	0.00995775
163.92	0.010269
165.848	0.0102191
167.777	0.0101344
169.705	0.0101463
171.633	0.0101772
173.562	0.0105928
175.49	0.0108861
177.419	0.0106506
179.347	0.0106398
181.276	0.0110312
183.204	0.0109254
185.133	0.0112045
187.061	0.0116698
188.99	0.0118951
190.918	0.0119756
192.847	0.0123681
194.775	0.0124761
196.704	0.0124622
198.632	0.0127191
200.56	0.0129629
202.489	0.0129183
204.417	0.0130459
206.346	0.0132558
208.274	0.0133193
210.203	0.0130566
212.131	0.0131323
214.06	0.013319
215.988	0.0135005
217.917	0.0138293
219.845	0.0138952
221.774	0.0138317
223.702	0.0141438
225.631	0.0142444
227.559	0.0144949
229.488	0.0144445
231.416	0.0144232
233.344	0.0143567
235.273	0.0144124
237.201	0.0144778
239.13	0.014822
241.058	0.0151693
242.987	0.0154032
244.915	0.0154253
246.844	0.0155996
248.772	0.015822
250.701	0.0160548
252.629	0.0164367
254.558	0.0167539
256.486	0.0166174
258.414	0.0166628
260.343	0.0168374
262.271	0.0172792
264.2	0.0174751
266.128	0.0176345
268.057	0.0178043
269.985	0.0181253
271.914	0.0180549
273.842	0.0181896
275.771	0.0185776
277.699	0.0186895
279.628	0.0186772
281.556	0.0189439
283.485	0.0192152
285.413	0.0194598
287.341	0.0198055
289.27	0.0203053
291.198	0.0206207
293.127	0.020859
295.055	0.0209823
296.984	0.0211069
298.912	0.0214766
300.841	0.0218066
302.769	0.0220608
304.698	0.0223
306.626	0.0222655
308.555	0.0225179
310.483	0.0226662
312.411	0.0228451
314.34	0.0229512
316.269	0.0233131
318.197	0.0236464
320.125	0.0239755
322.054	0.0241332
323.982	0.0243918
325.911	0.0246949
327.839	0.0249585
329.768	0.0252223
331.696	0.0254536
333.625	0.0253962
335.553	0.0255188
337.482	0.0257273
339.41	0.0257814
341.339	0.0258968
343.267	0.0261652
345.195	0.0262353
347.124	0.0262492
349.052	0.0262266
350.981	0.0262947
352.909	0.026148
354.838	0.0259767
356.766	0.0263649
358.695	0.0266983
360.623	0.0267542
362.552	0.0270864
364.48	0.0270723
366.409	0.0268595
368.337	0.0270327
370.265	0.0273969
372.194	0.0274793
374.122	0.0276821
376.051	0.0278523
377.979	0.028039
379.908	0.0283168
381.836	0.0285412
383.765	0.0287905
385.693	0.0292838
387.622	0.0296405
389.55	0.0299443
391.479	0.0302694
393.407	0.0306326
395.336	0.0308124
397.264	0.0311705
399.192	0.031643
401.121	0.0319364
403.049	0.0320025
404.978	0.0323298
406.906	0.0326836
408.835	0.03273
410.763	0.0328329
412.692	0.0331463
414.62	0.0336395
416.549	0.0342372
418.477	0.0346291
420.406	0.0349569
422.334	0.0354972
424.262	0.0360893
426.191	0.0367698
428.12	0.0377168
430.048	0.0382239
431.976	0.0387929
433.905	0.0396127
435.833	0.0401938
437.762	0.0406413
439.69	0.0408802
441.619	0.0406534
443.547	0.0406766
445.476	0.0408372
447.404	0.0406143
449.333	0.0400125
451.261	0.0397455
453.19	0.0395379
455.118	0.0388292
457.046	0.0387223
458.975	0.0389824
460.903	0.0384737
462.832	0.037902
464.76	0.0372393
466.689	0.036472
468.617	0.0359056
470.546	0.03553
472.474	0.0350255
474.403	0.034434
476.331	0.0337887
478.26	0.0334552
480.188	0.0331207
482.116	0.0324959
484.045	0.0321133
485.974	0.0320023
487.902	0.0319967
489.83	0.0321214
491.759	0.0321666
493.687	0.0322278
495.616	0.0319367
497.544	0.0317747
499.473	0.0316765
501.401	0.0317807
503.33	0.0316549
505.258	0.0317177
507.187	0.0316075
509.115	0.0313827
511.043	0.0311618
512.972	0.0309834
514.9	0.0309194
516.829	0.031116
518.757	0.0313629
520.686	0.03169
522.614	0.0318958
524.543	0.0319998
526.471	0.0321573
528.4	0.0324355
530.328	0.0324627
532.257	0.0326146
534.185	0.0328459
536.114	0.0330416
538.042	0.0330804
539.971	0.0333295
541.899	0.0335357
543.827	0.0336984
545.756	0.034008
547.684	0.0345386
549.613	0.0350142
551.541	0.0351783
553.47	0.0352957
555.398	0.0352948
557.327	0.0355936
559.255	0.0361322
561.184	0.0361719
563.112	0.0361597
565.041	0.0359512
566.969	0.0359428
568.898	0.0358681
570.826	0.0360448
572.755	0.0361053
574.683	0.0359712
576.611	0.0360277
578.54	0.0358952
580.468	0.0354453
582.397	0.0352809
584.325	0.0351678
586.254	0.0350601
588.182	0.0345888
590.111	0.0341597
592.039	0.0336173
593.968	0.0331513
595.896	0.0329476
597.824	0.0325557
599.753	0.0318347
601.682	0.0310019
603.61	0.0301642
605.538	0.0294869
607.467	0.0288737
609.395	0.0285103
611.324	0.0279627
613.252	0.0272323
615.181	0.0265015
617.109	0.0264611
619.038	0.0262653
620.966	0.0256487
622.894	0.0249764
624.823	0.0256618
626.751	0.0269762
628.68	0.0281189
630.608	0.0289107
632.537	0.0292274
634.465	0.0291572
636.394	0.0290696
638.322	0.0291133
640.251	0.0290786
642.179	0.0289038
644.108	0.0290322
646.036	0.0296554
647.965	0.0300388
649.893	0.0299778
651.822	0.0300931
653.75	0.0303112
655.678	0.0305199
657.607	0.0306118
659.535	0.0306842
661.464	0.0310337
663.392	0.0313325
665.321	0.0312334
667.249	0.0314456
669.178	0.0320327
671.106	0.0321851
673.035	0.0320603
674.963	0.0320857
676.892	0.0322146
678.82	0.0326607
680.749	0.0329218
682.677	0.0331537
684.606	0.0333274
686.534	0.0333283
688.462	0.0335655
690.391	0.0338695
692.319	0.0345422
694.248	0.0349971
696.176	0.0353129
698.105	0.0362537
700.033	0.0368051
