Measurement: Infrared, Infrared Data Processed
Mineral: Baryte
Rruff sample: R050342
Ideal chemistry: BaS^6+^O_4_
Locality: Palos Verdes, Los Angeles County, California, USA
Source: California Institute of Technology
Description: Light brown fragment
Measured chemistry: Ba_1.00_S_1.00_O_4_
x	intensity
399.193	0.0268531
408.835	0.0243813
418.477	0.0236938
428.12	0.0168599
437.762	0.0154006
447.404	0.0159499
457.047	0.0151148
466.689	0.0154604
476.331	0.0152248
485.974	0.0155806
495.616	0.0166614
505.258	0.0173481
514.901	0.0202311
524.543	0.0225459
534.185	0.0264289
543.828	0.0327847
553.47	0.0402558
563.112	0.0549469
572.755	0.0797122
582.397	0.139622
592.039	0.280974
601.682	0.463436
611.324	0.312867
620.966	0.147856
630.609	0.179628
640.251	0.132024
649.893	0.0523138
659.536	0.0192141
669.178	0.00996419
678.82	0.00750973
688.463	0.00813646
698.105	0.0090111
707.747	0.00980234
717.39	0.010221
727.032	0.0144809
736.674	0.0111213
746.317	0.0109719
755.959	0.0115155
765.601	0.0128256
775.244	0.0148269
784.886	0.0161466
794.528	0.0166197
804.171	0.0182489
813.813	0.0186427
823.455	0.0196882
833.098	0.0213436
842.74	0.0215803
852.382	0.0243649
862.025	0.0281533
871.667	0.0373768
881.309	0.0504209
890.952	0.0398806
900.594	0.0398397
910.236	0.0443238
919.879	0.0503218
929.521	0.057485
939.163	0.066406
948.806	0.0795353
958.448	0.0976612
968.09	0.126738
977.733	0.206216
987.375	0.14154
997.017	0.164287
1006.66	0.221525
1016.3	0.286823
1025.94	0.36572
1035.59	0.459699
1045.23	0.564349
1054.87	0.663995
1064.51	0.700507
1074.16	0.647855
1083.8	0.569223
1093.44	0.487168
1103.08	0.420953
1112.72	0.368347
1122.37	0.322765
1132.01	0.27802
1141.65	0.232994
1151.3	0.200065
1160.94	0.196039
1170.58	0.201273
1180.22	0.202855
1189.86	0.179503
1199.51	0.14303
1209.15	0.105116
1218.79	0.0701791
1228.43	0.0405296
1238.08	0.0225095
1247.72	0.0156356
1257.36	0.0116413
1267	0.0101287
1276.64	0.00890842
1286.29	0.00798443
1295.93	0.00744377
1305.57	0.00757377
1315.21	0.00757724
1324.86	0.00798677
1334.5	0.00839988
1344.14	0.00911746
1353.78	0.00935066
1363.43	0.00981502
1373.07	0.0110245
1382.71	0.012302
1392.35	0.0148326
1401.99	0.018768
1411.64	0.0169315
1421.28	0.0182332
1430.92	0.0222925
1440.57	0.0249587
1450.21	0.0240968
1459.85	0.0227393
1469.49	0.0215198
1479.13	0.0204317
1488.78	0.0185806
1498.42	0.0168366
1508.06	0.0147285
1517.7	0.0129335
1527.35	0.011617
1536.99	0.0104442
1546.63	0.00919813
1556.27	0.00817594
1565.91	0.00681573
1575.56	0.00486029
1585.2	0.00515701
1594.84	0.00536825
1604.48	0.00522666
1614.13	0.00485938
1623.77	0.00452352
1633.41	0.00452129
1643.05	0.00433127
1652.7	0.00400313
1662.34	0.00397763
1671.98	0.0044058
1681.62	0.00447992
1691.27	0.00364266
1700.91	0.00327771
1710.55	0.00262966
1720.19	0.00268298
1729.84	0.0022377
1739.48	0.000872189
1749.12	0.000286817
1758.76	0.00247445
1768.4	0.00341178
1778.05	0.0035955
1787.69	0.00446878
1797.33	0.00438682
1806.97	0.00492206
1816.62	0.00428136
1826.26	0.00487406
1835.9	0.00446052
1845.54	0.00413468
1855.18	0.00349703
1864.83	0.00431025
1874.47	0.00429327
1884.11	0.00390357
1893.75	0.00223227
1903.4	0.00366931
1913.04	0.0030157
1922.68	0.00217029
1932.32	0.00293032
1941.97	0.00100934
1951.61	0.000266072
1961.25	-0.00368474
1970.89	-0.00452349
1980.54	0.00483245
1990.18	0.00216563
1999.82	0.00156048
2009.46	-0.00328222
2019.11	-0.00341806
2028.75	-0.00202135
2038.39	0.00177579
2048.03	0.00321931
2057.67	0.00374884
2067.32	0.00171835
2076.96	0.00250915
2086.6	0.00218302
2096.24	0.00294836
2105.89	0.000388877
2115.53	0.00148963
2125.17	0.000189085
2134.81	-0.00402864
2144.45	-0.00686676
2154.1	-0.00634698
2163.74	-0.00780339
2173.38	-0.00578303
2183.02	-0.00289653
2192.67	-0.00377629
2202.31	-0.0030068
2211.95	0.00051618
2221.59	-0.00221923
2231.24	0.0017418
2240.88	0.00169674
2250.52	0.00119622
2260.16	0.003008
2269.8	0.00369979
2279.45	0.0040166
2289.09	0.00573124
2298.73	0.00592914
2308.38	0.00656096
2318.02	0.00612423
2327.66	0.00654132
2337.3	0.00695932
2346.94	0.00633554
2356.59	0.0058177
2366.23	0.00564369
2375.87	0.00492115
2385.51	0.0050937
2395.16	0.00678692
2404.8	0.00602615
2414.44	0.00547202
2424.08	0.00511673
2433.72	0.00586224
2443.37	0.00796163
2453.01	0.00929828
2462.65	0.00793404
2472.29	0.00855418
2481.94	0.00873577
2491.58	0.00822229
2501.22	0.00953178
2510.86	0.0082327
2520.51	0.00959878
2530.15	0.0104721
2539.79	0.00740761
2549.43	0.00941524
2559.07	0.0078624
2568.72	0.00847917
2578.36	0.00914682
2588	0.00923272
2597.64	0.0101273
2607.29	0.0097074
2616.93	0.00953081
2626.57	0.0101803
2636.21	0.0121493
2645.86	0.01016
2655.5	0.00959568
2665.14	0.00908214
2674.78	0.00966796
2684.43	0.0102635
2694.07	0.00908508
2703.71	0.00923597
2713.35	0.0103329
2722.99	0.00943298
2732.64	0.0103972
2742.28	0.010388
2751.92	0.00978469
2761.56	0.0101882
2771.21	0.0105468
2780.85	0.0107045
2790.49	0.0100303
2800.13	0.0101809
2809.78	0.00800639
2819.42	0.0106386
2829.06	0.00938747
2838.7	0.00739967
2848.34	0.00414651
2857.99	0.00328198
2867.63	0.00573573
2877.27	0.00692096
2886.91	0.00665149
2896.56	0.00519044
2906.2	0.00278182
2915.84	-3.36211e-05
2925.48	-0.00302555
2935.13	0.00134825
2944.77	0.00489822
2954.41	0.00388041
2964.05	0.00791574
2973.7	0.00815991
2983.34	0.0105003
2992.98	0.00788713
3002.62	0.00934177
3012.26	0.011746
3021.91	0.0114021
3031.55	0.0107427
3041.19	0.0106381
3050.83	0.0120163
3060.48	0.0121884
3070.12	0.0112298
3079.76	0.01191
3089.4	0.0124259
3099.05	0.0124799
3108.69	0.0120032
3118.33	0.0138189
3127.97	0.0120853
3137.61	0.0121902
3147.26	0.0132616
3156.9	0.0164045
3166.54	0.013196
3176.18	0.0139839
3185.83	0.0127419
3195.47	0.0138191
3205.11	0.0140118
3214.75	0.0162977
3224.4	0.0150726
3234.04	0.0133706
3243.68	0.0155579
3253.32	0.0146416
3262.97	0.0141842
3272.61	0.0135332
3282.25	0.0153964
3291.89	0.0126938
3301.53	0.0149189
3311.18	0.0176507
3320.82	0.0136405
3330.46	0.0153955
3340.1	0.0159244
3349.75	0.0138852
3359.39	0.0162369
3369.03	0.0147202
3378.67	0.0200576
3388.32	0.0178041
3397.96	0.0135135
3407.6	0.0162009
3417.24	0.0147291
3426.89	0.0176839
3436.53	0.0169619
3446.17	0.0137215
3455.81	0.0181835
3465.45	0.0157017
3475.1	0.0176476
3484.74	0.0187615
3494.38	0.0175883
3504.02	0.0152801
3513.67	0.0157532
3523.31	0.0163448
3532.95	0.0168451
3542.59	0.0186401
3552.24	0.0181185
3561.88	0.0149779
3571.52	0.0165816
3581.16	0.0187307
3590.8	0.0151991
3600.45	0.0170067
3610.09	0.0172748
3619.73	0.0133848
3629.37	0.0140618
3639.02	0.0186427
3648.66	0.0166555
3658.3	0.0164905
3667.94	0.021215
3677.59	0.0146232
3687.23	0.0134371
3696.87	0.0142484
3706.51	0.0153452
3716.16	0.0128195
3725.8	0.0177565
3735.44	0.01939
3745.08	0.0122915
3754.72	0.0157261
3764.37	0.0172799
3774.01	0.0167829
3783.65	0.0181071
3793.29	0.0180593
3802.94	0.0143878
3812.58	0.0223863
3822.22	0.0154769
3831.86	0.0189075
3841.51	0.0182271
3851.15	0.0185471
3860.79	0.0173507
3870.43	0.0193108
3880.07	0.013998
3889.72	0.0131248
3899.36	0.0191394
3909	0.0157246
3918.64	0.0167072
3928.29	0.0158911
3937.93	0.0227008
3947.57	0.0221588
3957.21	0.0235604
3966.86	0.0170516
3976.5	0.0216233
3986.14	0.014936
3995.78	0.0206069
