Measurement: Infrared, Infrared Data Processed
Mineral: Barysilite
Rruff sample: R050002
Ideal chemistry: Pb^2+^_8_Mn^2+^(Si_2_O_7_)_3_
Locality: Franklin, Sussex County, New Jersey, USA
Source: University of Arizona Mineral Museum
Description: A lamellar aggregate of platy crystals
Measured chemistry: Pb_8.00_Mn_1.00_(Si_2.00_O_7_)_3_
x	intensity
399.193	0
408.835	0.165505
418.477	0.178312
428.12	0.170652
437.762	0.161343
447.404	0.142012
457.047	0.151851
466.689	0.136164
476.331	0.138255
485.974	0.0901366
495.616	0.0569762
505.258	0.0645788
514.901	0.121161
524.543	0.186311
534.185	0.0851452
543.828	0.0874428
553.47	0.106371
563.112	0.0526129
572.755	0.0488969
582.397	0.0487187
592.039	0.0459833
601.682	0.0440177
611.324	0.0528974
620.966	0.0483928
630.609	0.0405003
640.251	0.0413323
649.893	0.046097
659.536	0.0525178
669.178	0.0639104
678.82	0.0888688
688.463	0.117395
698.105	0.187406
707.747	0.0726829
717.39	0.0516963
727.032	0.0652017
736.674	0.0812462
746.317	0.099465
755.959	0.120504
765.601	0.140956
775.244	0.164918
784.886	0.191986
794.528	0.221322
804.171	0.252193
813.813	0.291048
823.455	0.325172
833.098	0.314977
842.74	0.244591
852.382	0.246147
862.025	0.297245
871.667	0.331934
881.309	0.34798
890.952	0.341472
900.594	0.296069
910.236	0.289873
919.879	0.248309
929.521	0.294483
939.163	0.241753
948.806	0.178363
958.448	0.134735
968.09	0.122887
977.733	0.10072
987.375	0.0676367
997.017	0.0452825
1006.66	0.0343808
1016.3	0.0275677
1025.94	0.0227365
1035.59	0.0204449
1045.23	0.0176224
1054.87	0.0167586
1064.51	0.015303
1074.16	0.0157967
1083.8	0.0186409
1093.44	0.0180063
1103.08	0.0157433
1112.72	0.015026
1122.37	0.0150264
1132.01	0.0153154
1141.65	0.0159252
1151.3	0.0161622
1160.94	0.0141333
1170.58	0.0123616
1180.22	0.0114597
1189.86	0.0112199
1199.51	0.0113387
1209.15	0.0110124
1218.79	0.0112356
1228.43	0.0115081
1238.08	0.0117848
1247.72	0.0121791
1257.36	0.0126386
1267	0.0133981
1276.64	0.01446
1286.29	0.0152343
1295.93	0.0164435
1305.57	0.017573
1315.21	0.0191237
1324.86	0.0201614
1334.5	0.0219149
1344.14	0.0234789
1353.78	0.0250696
1363.43	0.0269066
1373.07	0.0290303
1382.71	0.0315396
1392.35	0.0348637
1401.99	0.0374995
1411.64	0.0379712
1421.28	0.0383109
1430.92	0.0396393
1440.57	0.0405551
1450.21	0.0403666
1459.85	0.0392166
1469.49	0.0379526
1479.13	0.0349703
1488.78	0.0326038
1498.42	0.0298517
1508.06	0.0286968
1517.7	0.0279663
1527.35	0.0280736
1536.99	0.0275876
1546.63	0.0274083
1556.27	0.0275906
1565.91	0.0280386
1575.56	0.0273629
1585.2	0.0272291
1594.84	0.0267223
1604.48	0.0268575
1614.13	0.0262962
1623.77	0.0249902
1633.41	0.0245647
1643.05	0.024244
1652.7	0.0245959
1662.34	0.024961
1671.98	0.0249865
1681.62	0.0256016
1691.27	0.0259384
1700.91	0.0259475
1710.55	0.0263718
1720.19	0.026874
1729.84	0.0275318
1739.48	0.0272511
1749.12	0.0269995
1758.76	0.0268015
1768.4	0.0271932
1778.05	0.0275749
1787.69	0.0283923
1797.33	0.028406
1806.97	0.0288649
1816.62	0.0285503
1826.26	0.028468
1835.9	0.0283199
1845.54	0.0283206
1855.18	0.0285244
1864.83	0.0285002
1874.47	0.0286975
1884.11	0.0281116
1893.75	0.0287739
1903.4	0.0291638
1913.04	0.029988
1922.68	0.0288489
1932.32	0.0287467
1941.97	0.0295257
1951.61	0.028877
1961.25	0.0300899
1970.89	0.0289985
1980.54	0.0325198
1990.18	0.0300772
1999.82	0.0327126
2009.46	0.0329079
2019.11	0.0330769
2028.75	0.0335421
2038.39	0.0344425
2048.03	0.0371418
2057.67	0.0366368
2067.32	0.0355912
2076.96	0.0382475
2086.6	0.0374314
2096.24	0.0377084
2105.89	0.0383597
2115.53	0.0371997
2125.17	0.037658
2134.81	0.0375901
2144.45	0.0386315
2154.1	0.0368245
2163.74	0.0426875
2173.38	0.0408425
2183.02	0.0399385
2192.67	0.0421574
2202.31	0.0422644
2211.95	0.0418471
2221.59	0.0430491
2231.24	0.0419383
2240.88	0.0426767
2250.52	0.0426634
2260.16	0.0435662
2269.8	0.0428807
2279.45	0.0436734
2289.09	0.0441478
2298.73	0.0450522
2308.38	0.0461086
2318.02	0.0458878
2327.66	0.0452276
2337.3	0.0456492
2346.94	0.045573
2356.59	0.0464137
2366.23	0.0458143
2375.87	0.046282
2385.51	0.045635
2395.16	0.0461798
2404.8	0.0466221
2414.44	0.0472394
2424.08	0.0473844
2433.72	0.0479228
2443.37	0.0476409
2453.01	0.0483262
2462.65	0.0491027
2472.29	0.0484497
2481.94	0.0489889
2491.58	0.048894
2501.22	0.0495079
2510.86	0.0493521
2520.51	0.049663
2530.15	0.0497318
2539.79	0.0504769
2549.43	0.0517975
2559.07	0.0506889
2568.72	0.0512249
2578.36	0.0513544
2588	0.0511835
2597.64	0.0516723
2607.29	0.0527027
2616.93	0.0520398
2626.57	0.0529694
2636.21	0.0533721
2645.86	0.05324
2655.5	0.0534241
2665.14	0.0532124
2674.78	0.0530317
2684.43	0.0538406
2694.07	0.0536
2703.71	0.0543151
2713.35	0.0539647
2722.99	0.0544285
2732.64	0.0553539
2742.28	0.0551182
2751.92	0.0557286
2761.56	0.0556226
2771.21	0.0556205
2780.85	0.0561251
2790.49	0.0555855
2800.13	0.0566199
2809.78	0.0560664
2819.42	0.0568849
2829.06	0.057563
2838.7	0.0586663
2848.34	0.0571979
2857.99	0.0578052
2867.63	0.0580174
2877.27	0.0589175
2886.91	0.0588703
2896.56	0.0595208
2906.2	0.0601085
2915.84	0.0598315
2925.48	0.0612289
2935.13	0.0602146
2944.77	0.060646
2954.41	0.0599809
2964.05	0.0610805
2973.7	0.0602449
2983.34	0.0612457
2992.98	0.060338
3002.62	0.0620977
3012.26	0.0615969
3021.91	0.0628208
3031.55	0.0623053
3041.19	0.0611812
3050.83	0.0622736
3060.48	0.0634402
3070.12	0.0631117
3079.76	0.0636955
3089.4	0.0637559
3099.05	0.0635806
3108.69	0.0634316
3118.33	0.0633394
3127.97	0.0629277
3137.61	0.0639472
3147.26	0.0637574
3156.9	0.0656047
3166.54	0.0642187
3176.18	0.0646339
3185.83	0.0655161
3195.47	0.0653068
3205.11	0.0630253
3214.75	0.0643281
3224.4	0.0644564
3234.04	0.0654768
3243.68	0.0642648
3253.32	0.0643542
3262.97	0.0656138
3272.61	0.0654746
3282.25	0.0658076
3291.89	0.0651983
3301.53	0.0655596
3311.18	0.0659723
3320.82	0.0662709
3330.46	0.0654991
3340.1	0.066385
3349.75	0.0667748
3359.39	0.0670438
3369.03	0.0661763
3378.67	0.0667278
3388.32	0.0673785
3397.96	0.0670279
3407.6	0.067246
3417.24	0.0675883
3426.89	0.0686597
3436.53	0.068285
3446.17	0.0686029
3455.81	0.0681233
3465.45	0.0697131
3475.1	0.0705141
3484.74	0.0715365
3494.38	0.0685671
3504.02	0.0693812
3513.67	0.0704373
3523.31	0.0696379
3532.95	0.070909
3542.59	0.0710199
3552.24	0.0712653
3561.88	0.0722363
3571.52	0.0726378
3581.16	0.0722143
3590.8	0.0732674
3600.45	0.0732329
3610.09	0.0732191
3619.73	0.0717543
3629.37	0.073282
3639.02	0.0719409
3648.66	0.0742508
3658.3	0.0724524
3667.94	0.0729898
3677.59	0.0749452
3687.23	0.0738851
3696.87	0.0742084
3706.51	0.0730845
3716.16	0.0752908
3725.8	0.0739944
3735.44	0.0764655
3745.08	0.0751729
3754.72	0.0736966
3764.37	0.0745427
3774.01	0.0757458
3783.65	0.0778101
3793.29	0.0763312
3802.94	0.0772188
3812.58	0.0793326
3822.22	0.0787521
3831.86	0.0763792
3841.51	0.0779678
3851.15	0.0763653
3860.79	0.0760494
3870.43	0.077791
3880.07	0.0775751
3889.72	0.0787744
3899.36	0.0771777
3909	0.0779538
3918.64	0.0767771
3928.29	0.0767888
3937.93	0.0771335
3947.57	0.0787791
3957.21	0.0784313
3966.86	0.0804031
3976.5	0.0798318
3986.14	0.0793908
3995.78	0.0806143
