Measurement: Infrared, Infrared Data Processed
Mineral: Benitoite
Rruff sample: R050320
Ideal chemistry: BaTi^4+^Si_3_O_9_
Locality: San Benito County, California, USA
Source: American Museum of Natural History
Description: Blue fragment
Measured chemistry: Ba_1.00_Ti_1.00_(Si_2.99_Al_0.01_)_Î£=3_O_9_
x	intensity
399.193	0.132272
408.835	0.0904658
418.477	0.118456
428.12	0.192805
437.762	0.240562
447.404	0.190725
457.047	0.12525
466.689	0.0897784
476.331	0.172704
485.974	0.156942
495.616	0.11086
505.258	0.0771611
514.901	0.0505121
524.543	0.0375579
534.185	0.0322178
543.828	0.032495
553.47	0.0366129
563.112	0.0523982
572.755	0.0709463
582.397	0.0422145
592.039	0.0366078
601.682	0.0400576
611.324	0.0459646
620.966	0.0505919
630.609	0.0547554
640.251	0.0662666
649.893	0.0776529
659.536	0.090775
669.178	0.105474
678.82	0.122734
688.463	0.144713
698.105	0.171582
707.747	0.201011
717.39	0.234903
727.032	0.27681
736.674	0.319093
746.317	0.343228
755.959	0.323434
765.601	0.245376
775.244	0.166018
784.886	0.0991018
794.528	0.0706866
804.171	0.0707236
813.813	0.07848
823.455	0.0934041
833.098	0.117446
842.74	0.151744
852.382	0.196593
862.025	0.245006
871.667	0.293753
881.309	0.338492
890.952	0.381609
900.594	0.41509
910.236	0.422369
919.879	0.383754
929.521	0.33341
939.163	0.26976
948.806	0.222072
958.448	0.181682
968.09	0.153859
977.733	0.159226
987.375	0.175471
997.017	0.194808
1006.66	0.227463
1016.3	0.251974
1025.94	0.243809
1035.59	0.211696
1045.23	0.167817
1054.87	0.12604
1064.51	0.0927877
1074.16	0.0657948
1083.8	0.0453607
1093.44	0.0317169
1103.08	0.024524
1112.72	0.0202198
1122.37	0.0171139
1132.01	0.0146891
1141.65	0.0122366
1151.3	0.0101649
1160.94	0.00896806
1170.58	0.00773618
1180.22	0.00656418
1189.86	0.00530922
1199.51	0.0049535
1209.15	0.00406827
1218.79	0.00319016
1228.43	0.00232186
1238.08	0.00188101
1247.72	0.00141939
1257.36	0.0014644
1267	0.00112086
1276.64	0.00137745
1286.29	0.00138588
1295.93	0.00185068
1305.57	0.00189413
1315.21	0.00212307
1324.86	0.00203435
1334.5	0.00311249
1344.14	0.00256382
1353.78	0.00344048
1363.43	0.00349361
1373.07	0.00380607
1382.71	0.00422932
1392.35	0.00477999
1401.99	0.00495728
1411.64	0.005299
1421.28	0.00480004
1430.92	0.00449955
1440.57	0.00406983
1450.21	0.0039577
1459.85	0.00317491
1469.49	0.00292934
1479.13	0.00445402
1488.78	0.00484865
1498.42	0.00511159
1508.06	0.00574604
1517.7	0.00535515
1527.35	0.00578312
1536.99	0.00660064
1546.63	0.00705969
1556.27	0.00830993
1565.91	0.00904819
1575.56	0.0106597
1585.2	0.0103455
1594.84	0.0105771
1604.48	0.00953126
1614.13	0.00911764
1623.77	0.00870623
1633.41	0.00913661
1643.05	0.0089814
1652.7	0.010542
1662.34	0.00924122
1671.98	0.0082582
1681.62	0.00769321
1691.27	0.00749271
1700.91	0.00799664
1710.55	0.0059363
1720.19	0.00513072
1729.84	0.0043109
1739.48	0.00139412
1749.12	0.00079336
1758.76	0.00370072
1768.4	0.00548947
1778.05	0.00574088
1787.69	0.00470456
1797.33	0.00572503
1806.97	0.00487211
1816.62	0.00513375
1826.26	0.00491279
1835.9	0.00598161
1845.54	0.00550878
1855.18	0.00660612
1864.83	0.00610506
1874.47	0.00435602
1884.11	0.00521228
1893.75	0.00349519
1903.4	0.00469529
1913.04	0.00660637
1922.68	0.00440068
1932.32	0.00415812
1941.97	0.00550749
1951.61	0.00495152
1961.25	0.00289417
1970.89	0.00259354
1980.54	0.00222441
1990.18	0.00451957
1999.82	0.00460475
2009.46	0.00155827
2019.11	0.00151964
2028.75	0.000419422
2038.39	0.000580427
2048.03	0.00234968
2057.67	0.00179027
2067.32	0.00706264
2076.96	0.00668319
2086.6	0.00658119
2096.24	0.00487299
2105.89	0.00575776
2115.53	0.00710867
2125.17	0.00535185
2134.81	0.00478069
2144.45	0.00454063
2154.1	0.00547395
2163.74	0.0100702
2173.38	0.00835218
2183.02	0.00914322
2192.67	0.00974957
2202.31	0.0100414
2211.95	0.0102462
2221.59	0.0113712
2231.24	0.01088
2240.88	0.0103957
2250.52	0.011718
2260.16	0.0112582
2269.8	0.0130673
2279.45	0.0140993
2289.09	0.0131277
2298.73	0.0137135
2308.38	0.0143553
2318.02	0.0145373
2327.66	0.0146647
2337.3	0.0157688
2346.94	0.0141638
2356.59	0.0157375
2366.23	0.015782
2375.87	0.0141905
2385.51	0.0134788
2395.16	0.0135912
2404.8	0.0128929
2414.44	0.0134898
2424.08	0.0136534
2433.72	0.0128511
2443.37	0.0137232
2453.01	0.0125479
2462.65	0.0127972
2472.29	0.0135979
2481.94	0.0145714
2491.58	0.013121
2501.22	0.0149032
2510.86	0.0155791
2520.51	0.0135107
2530.15	0.0136318
2539.79	0.0144708
2549.43	0.0144812
2559.07	0.0132718
2568.72	0.014663
2578.36	0.0134054
2588	0.0164418
2597.64	0.0155588
2607.29	0.014854
2616.93	0.0147864
2626.57	0.0140215
2636.21	0.0154537
2645.86	0.017084
2655.5	0.0165284
2665.14	0.01598
2674.78	0.0153466
2684.43	0.0157118
2694.07	0.0162835
2703.71	0.0155862
2713.35	0.0168786
2722.99	0.0170734
2732.64	0.0164141
2742.28	0.0164238
2751.92	0.0179387
2761.56	0.0183665
2771.21	0.0184612
2780.85	0.0177096
2790.49	0.018197
2800.13	0.0173601
2809.78	0.0188279
2819.42	0.0179028
2829.06	0.0187305
2838.7	0.0179169
2848.34	0.0190282
2857.99	0.0193863
2867.63	0.0202848
2877.27	0.0212742
2886.91	0.0193072
2896.56	0.0204015
2906.2	0.0197892
2915.84	0.0219437
2925.48	0.0213228
2935.13	0.0228155
2944.77	0.0216573
2954.41	0.0207583
2964.05	0.0214701
2973.7	0.0241724
2983.34	0.0228622
2992.98	0.0213128
3002.62	0.023491
3012.26	0.0222797
3021.91	0.022506
3031.55	0.0211922
3041.19	0.0224617
3050.83	0.0214712
3060.48	0.0237755
3070.12	0.022176
3079.76	0.0220667
3089.4	0.0233013
3099.05	0.0244273
3108.69	0.0224018
3118.33	0.024011
3127.97	0.0234361
3137.61	0.0259825
3147.26	0.0243463
3156.9	0.0230586
3166.54	0.0246397
3176.18	0.023715
3185.83	0.025976
3195.47	0.0244263
3205.11	0.0244705
3214.75	0.0253785
3224.4	0.029417
3234.04	0.0270979
3243.68	0.0273827
3253.32	0.0248655
3262.97	0.0270275
3272.61	0.0250648
3282.25	0.0245887
3291.89	0.0252173
3301.53	0.0256731
3311.18	0.0247563
3320.82	0.0273361
3330.46	0.0276698
3340.1	0.0272204
3349.75	0.0292665
3359.39	0.0259767
3369.03	0.0276688
3378.67	0.0277622
3388.32	0.027335
3397.96	0.0308873
3407.6	0.0260772
3417.24	0.0286316
3426.89	0.0262074
3436.53	0.0269781
3446.17	0.0222789
3455.81	0.0246894
3465.45	0.0259741
3475.1	0.029563
3484.74	0.0282544
3494.38	0.0268163
3504.02	0.0264977
3513.67	0.027591
3523.31	0.0238915
3532.95	0.027039
3542.59	0.0258497
3552.24	0.0260462
3561.88	0.0300232
3571.52	0.0257028
3581.16	0.0219845
3590.8	0.0239633
3600.45	0.0212319
3610.09	0.0237304
3619.73	0.0227933
3629.37	0.023989
3639.02	0.0244587
3648.66	0.0220347
3658.3	0.0270073
3667.94	0.0268546
3677.59	0.0238791
3687.23	0.0241164
3696.87	0.0234019
3706.51	0.0198918
3716.16	0.020838
3725.8	0.0234216
3735.44	0.0250355
3745.08	0.0272971
3754.72	0.0227511
3764.37	0.0251464
3774.01	0.0269419
3783.65	0.0271598
3793.29	0.0249584
3802.94	0.0217982
3812.58	0.023007
3822.22	0.023177
3831.86	0.0259528
3841.51	0.0298203
3851.15	0.0269844
3860.79	0.0269274
3870.43	0.025402
3880.07	0.0263422
3889.72	0.0271005
3899.36	0.0242044
3909	0.0246828
3918.64	0.0278389
3928.29	0.0221355
3937.93	0.0288139
3947.57	0.0256933
3957.21	0.0245706
3966.86	0.0214668
3976.5	0.027519
3986.14	0.0277626
3995.78	0.0247175
