Measurement: Infrared, Infrared Data Processed
Mineral: Beryl
Rruff sample: R050347
Ideal chemistry: Be_3_Al_2_Si_6_O_18_
Locality: North Keystone, South Dakota, USA
Source: California Institute of Technology
Description: Colorless fragment
Measured chemistry: (Be_0.96_Li_0.04_)_3_Al_2.00_(Si_0.99_Al_0.01_)_6_O_18_ Î‡0.17Na
x	intensity
399.193	0.238874
408.835	0.284212
418.477	0.305398
428.12	0.316478
437.762	0.293322
447.404	0.248573
457.047	0.210884
466.689	0.202383
476.331	0.228492
485.974	0.264665
495.616	0.251948
505.258	0.198641
514.901	0.266883
524.543	0.247548
534.185	0.194881
543.828	0.138898
553.47	0.101413
563.112	0.0878135
572.755	0.0983003
582.397	0.125495
592.039	0.191245
601.682	0.122033
611.324	0.0752613
620.966	0.0715101
630.609	0.0807029
640.251	0.118764
649.893	0.178787
659.536	0.176438
669.178	0.246438
678.82	0.259062
688.463	0.190398
698.105	0.141952
707.747	0.117877
717.39	0.119838
727.032	0.144961
736.674	0.169438
746.317	0.163469
755.959	0.131087
765.601	0.101881
775.244	0.0995684
784.886	0.120217
794.528	0.160825
804.171	0.193836
813.813	0.18242
823.455	0.150896
833.098	0.119268
842.74	0.097225
852.382	0.0899254
862.025	0.0942375
871.667	0.110394
881.309	0.13726
890.952	0.174452
900.594	0.220532
910.236	0.268166
919.879	0.311878
929.521	0.342478
939.163	0.357651
948.806	0.358409
958.448	0.325284
968.09	0.260771
977.733	0.205797
987.375	0.165281
997.017	0.143586
1006.66	0.149144
1016.3	0.154645
1025.94	0.140967
1035.59	0.123474
1045.23	0.110204
1054.87	0.10816
1064.51	0.108358
1074.16	0.0977094
1083.8	0.0829347
1093.44	0.0698305
1103.08	0.0645194
1112.72	0.0662588
1122.37	0.0776649
1132.01	0.0996765
1141.65	0.121342
1151.3	0.12646
1160.94	0.138709
1170.58	0.1664
1180.22	0.185559
1189.86	0.199056
1199.51	0.204731
1209.15	0.172994
1218.79	0.139778
1228.43	0.110909
1238.08	0.0858736
1247.72	0.064595
1257.36	0.0470079
1267	0.0326475
1276.64	0.0190496
1286.29	0.0104157
1295.93	0.00785863
1305.57	0.00648297
1315.21	0.00608683
1324.86	0.00563346
1334.5	0.00488559
1344.14	0.00471931
1353.78	0.0042058
1363.43	0.00392321
1373.07	0.00373167
1382.71	0.00346777
1392.35	0.00373951
1401.99	0.0034397
1411.64	0.0031253
1421.28	0.00354499
1430.92	0.0031566
1440.57	0.00298341
1450.21	0.00284514
1459.85	0.00262373
1469.49	0.0028793
1479.13	0.00300174
1488.78	0.0026824
1498.42	0.00265262
1508.06	0.00234445
1517.7	0.00229348
1527.35	0.00281695
1536.99	0.0031455
1546.63	0.00411339
1556.27	0.00327486
1565.91	0.00332993
1575.56	0.00377875
1585.2	0.00405173
1594.84	0.00468852
1604.48	0.00497453
1614.13	0.00505883
1623.77	0.00937267
1633.41	0.0127132
1643.05	0.00499421
1652.7	0.00474735
1662.34	0.00372119
1671.98	0.00350465
1681.62	0.00318089
1691.27	0.00263742
1700.91	0.00175007
1710.55	0.00136809
1720.19	0.00127794
1729.84	0.000891972
1739.48	0.000734004
1749.12	-1.1591e-05
1758.76	0.00150766
1768.4	0.00229
1778.05	0.00172445
1787.69	0.00181994
1797.33	0.00196294
1806.97	0.00164858
1816.62	0.0013225
1826.26	0.00135413
1835.9	0.000932351
1845.54	0.000356769
1855.18	-0.000134239
1864.83	0.000216477
1874.47	0.00109528
1884.11	0.00101284
1893.75	8.37097e-05
1903.4	0.000580738
1913.04	0.000780276
1922.68	0.000668928
1932.32	0.00139339
1941.97	0.000459292
1951.61	-0.00270603
1961.25	-0.00136228
1970.89	-0.00129458
1980.54	0.000703308
1990.18	0.00168899
1999.82	-0.00102626
2009.46	-0.00217896
2019.11	-0.0035508
2028.75	-0.00207353
2038.39	-0.000364979
2048.03	4.22096e-05
2057.67	0.00112136
2067.32	-0.000988711
2076.96	-0.000765826
2086.6	0.0016931
2096.24	0.000514544
2105.89	0.00147284
2115.53	0.00213845
2125.17	-0.00142995
2134.81	-0.00239285
2144.45	-0.00289084
2154.1	-0.00240286
2163.74	-0.000695026
2173.38	0.00270602
2183.02	0.00165257
2192.67	0.00340911
2202.31	0.00254849
2211.95	0.00414164
2221.59	0.00414609
2231.24	0.0029526
2240.88	0.00210963
2250.52	0.00185547
2260.16	0.00101076
2269.8	0.00115828
2279.45	0.0027259
2289.09	0.00258146
2298.73	0.0031961
2308.38	0.00295072
2318.02	0.00374569
2327.66	0.00381762
2337.3	0.00365963
2346.94	0.00271664
2356.59	0.00346988
2366.23	0.0026664
2375.87	0.00143074
2385.51	0.000947985
2395.16	0.00197662
2404.8	0.000454837
2414.44	0.00114222
2424.08	-0.000333113
2433.72	-4.81405e-05
2443.37	0.00183765
2453.01	0.00309363
2462.65	0.00231596
2472.29	0.00439392
2481.94	0.00391573
2491.58	0.00356718
2501.22	0.00344072
2510.86	0.00444885
2520.51	0.00530473
2530.15	0.00568538
2539.79	0.00431693
2549.43	0.00591639
2559.07	0.00537483
2568.72	0.00663125
2578.36	0.00528288
2588	0.0065777
2597.64	0.00546604
2607.29	0.0053201
2616.93	0.00589991
2626.57	0.00637673
2636.21	0.00746611
2645.86	0.00692643
2655.5	0.00676421
2665.14	0.00585594
2674.78	0.00648603
2684.43	0.00530424
2694.07	0.00547216
2703.71	0.00524803
2713.35	0.00747484
2722.99	0.00597707
2732.64	0.00622076
2742.28	0.00671485
2751.92	0.00653536
2761.56	0.0069857
2771.21	0.00638056
2780.85	0.00731616
2790.49	0.00719828
2800.13	0.00618509
2809.78	0.00586218
2819.42	0.00735326
2829.06	0.00673844
2838.7	0.00635565
2848.34	0.003844
2857.99	0.00162189
2867.63	0.00429052
2877.27	0.00627815
2886.91	0.00621267
2896.56	0.00424222
2906.2	0.00376503
2915.84	0.00319324
2925.48	-0.00159868
2935.13	-0.000293572
2944.77	0.00510813
2954.41	0.00453274
2964.05	0.00791308
2973.7	0.00708086
2983.34	0.00825093
2992.98	0.0081809
3002.62	0.00810384
3012.26	0.00962965
3021.91	0.00976861
3031.55	0.00945453
3041.19	0.0106472
3050.83	0.0121254
3060.48	0.00993078
3070.12	0.0103771
3079.76	0.0121084
3089.4	0.0112384
3099.05	0.0108309
3108.69	0.011115
3118.33	0.0138805
3127.97	0.0117689
3137.61	0.0117321
3147.26	0.0122449
3156.9	0.0127922
3166.54	0.014479
3176.18	0.0131295
3185.83	0.0143576
3195.47	0.0113557
3205.11	0.0140638
3214.75	0.0162722
3224.4	0.0155299
3234.04	0.0110824
3243.68	0.0124084
3253.32	0.0123451
3262.97	0.0150471
3272.61	0.011856
3282.25	0.0138711
3291.89	0.0138162
3301.53	0.0132939
3311.18	0.0142019
3320.82	0.0139918
3330.46	0.0148212
3340.1	0.0134468
3349.75	0.0136929
3359.39	0.0146865
3369.03	0.0137848
3378.67	0.0169566
3388.32	0.0157848
3397.96	0.013208
3407.6	0.0160465
3417.24	0.0132249
3426.89	0.0123027
3436.53	0.0141566
3446.17	0.0102824
3455.81	0.0141357
3465.45	0.0149762
3475.1	0.0145332
3484.74	0.0152011
3494.38	0.0143468
3504.02	0.0150447
3513.67	0.0132006
3523.31	0.0116031
3532.95	0.0127101
3542.59	0.0165718
3552.24	0.013046
3561.88	0.0141392
3571.52	0.0155195
3581.16	0.0150081
3590.8	0.0165293
3600.45	0.0166358
3610.09	0.0112377
3619.73	0.00763591
3629.37	0.012139
3639.02	0.0125076
3648.66	0.0119929
3658.3	0.00989797
3667.94	0.0132429
3677.59	0.0110603
3687.23	0.0115083
3696.87	0.0141799
3706.51	0.00886386
3716.16	0.00667222
3725.8	0.00989241
3735.44	0.00946466
3745.08	0.00414752
3754.72	0.00811809
3764.37	0.00886978
3774.01	0.00912926
3783.65	0.010818
3793.29	0.0120406
3802.94	0.00537081
3812.58	0.00728176
3822.22	0.00837438
3831.86	0.0105623
3841.51	0.0100883
3851.15	0.00495557
3860.79	0.00811307
3870.43	0.00866305
3880.07	0.00577966
3889.72	0.00638915
3899.36	0.0101103
3909	0.00674095
3918.64	0.00788228
3928.29	0.00616927
3937.93	0.00632703
3947.57	0.0123514
3957.21	0.0104323
3966.86	0.00712934
3976.5	0.00911038
3986.14	0.00798779
3995.78	0.0104437
