Measurement: Infrared, Infrared Data Processed
Mineral: Beryl
Rruff sample: R050120
Ideal chemistry: Be_3_Al_2_Si_6_O_18_
Locality: Cruziero mine, San Jose, Minas Gerais, Brazil
Source: Carlos and Paulo Vasconcelos
Description: Yellow gemmy fragment
Measured chemistry: (Be_2.76_Li_0.24_)_Σ=3_Al_2.00_Si_6.00_O_18_·Na_0.24_
x	intensity
50.1401	0.0205746
52.0686	0.0158784
53.9971	0.0173826
55.9255	0.0235418
57.854	0.0238054
59.7825	0.0243035
61.7109	0.0207122
63.6394	0.0255466
65.5679	0.0271926
67.4963	0.0272376
69.4248	0.0249735
71.3533	0.0246567
73.2817	0.0255264
75.2102	0.0289137
77.1387	0.0294144
79.0671	0.0300848
80.9956	0.0309108
82.9241	0.0332057
84.8525	0.0334143
86.781	0.0332654
88.7095	0.0326441
90.6379	0.0331987
92.5664	0.0334015
94.4948	0.0346
96.4233	0.0348877
98.3518	0.0350491
100.28	0.0355962
102.209	0.0360105
104.137	0.0363532
106.066	0.037617
107.994	0.0381584
109.923	0.0384969
111.851	0.0394705
113.779	0.040014
115.708	0.0405447
117.636	0.0413429
119.565	0.0421656
121.493	0.044406
123.422	0.0459442
125.35	0.0467102
127.279	0.0460732
129.207	0.0471439
131.136	0.0482447
133.064	0.0493353
134.993	0.0511365
136.921	0.0527743
138.85	0.0529537
140.778	0.053048
142.707	0.0540257
144.635	0.0553161
146.563	0.0554501
148.492	0.0567537
150.42	0.0581943
152.349	0.0592595
154.277	0.0600733
156.206	0.0614942
158.134	0.0615395
160.063	0.0612259
161.991	0.0612059
163.92	0.0618628
165.848	0.0627449
167.777	0.063238
169.705	0.0629534
171.633	0.0631358
173.562	0.0636557
175.49	0.0638549
177.419	0.0638517
179.347	0.0644489
181.276	0.0648601
183.204	0.065966
185.133	0.0672441
187.061	0.0681621
188.99	0.0684226
190.918	0.0686422
192.847	0.0691977
194.775	0.0700631
196.704	0.0700904
198.632	0.0705585
200.56	0.0710603
202.489	0.0714662
204.417	0.0704516
206.346	0.0695212
208.274	0.0686174
210.203	0.0676113
212.131	0.0672486
214.06	0.0679261
215.988	0.0683382
217.917	0.0690468
219.845	0.0699567
221.774	0.0710545
223.702	0.072118
225.631	0.0734484
227.559	0.0740563
229.488	0.0744831
231.416	0.0753676
233.344	0.0763322
235.273	0.0772273
237.201	0.0782106
239.13	0.0793631
241.058	0.0805725
242.987	0.0817159
244.915	0.0830275
246.844	0.0840826
248.772	0.0850549
250.701	0.0857251
252.629	0.0873226
254.558	0.0880516
256.486	0.0878419
258.414	0.0872568
260.343	0.0853157
262.271	0.0817815
264.2	0.0783272
266.128	0.0759942
268.057	0.0751139
269.985	0.0756348
271.914	0.0771178
273.842	0.0784059
275.771	0.0799453
277.699	0.0819123
279.628	0.0837023
281.556	0.0847152
283.485	0.085403
285.413	0.0860215
287.341	0.0873083
289.27	0.0884201
291.198	0.089102
293.127	0.0898629
295.055	0.0908396
296.984	0.0916651
298.912	0.0924809
300.841	0.0936909
302.769	0.0953673
304.698	0.0961468
306.626	0.0967914
308.555	0.0975567
310.483	0.0983154
312.411	0.0994041
314.34	0.101152
316.269	0.102229
318.197	0.102886
320.125	0.103491
322.054	0.104051
323.982	0.104143
325.911	0.104325
327.839	0.104506
329.768	0.105189
331.696	0.105702
333.625	0.106207
335.553	0.106496
337.482	0.107426
339.41	0.108283
341.339	0.108909
343.267	0.109316
345.195	0.110542
347.124	0.11122
349.052	0.111433
350.981	0.111724
352.909	0.112014
354.838	0.112421
356.766	0.113175
358.695	0.11372
360.623	0.113955
362.552	0.113592
364.48	0.112606
366.409	0.111133
368.337	0.109411
370.265	0.108274
372.194	0.108254
374.122	0.108268
376.051	0.106643
377.979	0.103434
379.908	0.100707
381.836	0.099806
383.765	0.100417
385.693	0.10111
387.622	0.102123
389.55	0.103183
391.479	0.104415
393.407	0.106235
395.336	0.108323
397.264	0.11028
399.192	0.112502
401.121	0.114692
403.049	0.117042
404.978	0.119326
406.906	0.121697
408.835	0.123855
410.763	0.12605
412.692	0.128082
414.62	0.129951
416.549	0.131682
418.477	0.133119
420.406	0.13398
422.334	0.135178
424.262	0.136091
426.191	0.136724
428.12	0.137242
430.048	0.137555
431.976	0.137574
433.905	0.137162
435.833	0.136472
437.762	0.135654
439.69	0.134243
441.619	0.132554
443.547	0.130223
445.476	0.128244
447.404	0.126098
449.333	0.123322
451.261	0.120516
453.19	0.117852
455.118	0.115453
457.046	0.11345
458.975	0.111556
460.903	0.109888
462.832	0.108738
464.76	0.108569
466.689	0.108674
468.617	0.109628
470.546	0.110308
472.474	0.111327
474.403	0.113084
476.331	0.11529
478.26	0.117197
480.188	0.119669
482.116	0.122278
484.045	0.124496
485.974	0.126506
487.902	0.128588
489.83	0.130076
491.759	0.13132
493.687	0.131726
495.616	0.131128
497.544	0.129584
499.473	0.126602
501.401	0.123049
503.33	0.120715
505.258	0.119668
507.187	0.120409
509.115	0.122475
511.043	0.125592
512.972	0.128943
514.9	0.131343
516.829	0.132999
518.757	0.134343
520.686	0.134546
522.614	0.133663
524.543	0.131754
526.471	0.129453
528.4	0.126382
530.328	0.122637
532.257	0.11849
534.185	0.114243
536.114	0.109797
538.042	0.105884
539.971	0.102064
541.899	0.0983046
543.827	0.0949683
545.756	0.0914551
547.684	0.0879883
549.613	0.0848604
551.541	0.0825202
553.47	0.0806858
555.398	0.0794375
557.327	0.0789389
559.255	0.078827
561.184	0.0790155
563.112	0.0791041
565.041	0.0791738
566.969	0.0787444
568.898	0.0771289
570.826	0.0748393
572.755	0.0730893
574.683	0.0722261
576.611	0.0721511
578.54	0.0727962
580.468	0.0747776
582.397	0.0782316
584.325	0.0821531
586.254	0.086049
588.182	0.0893973
590.111	0.0916027
592.039	0.0924535
593.968	0.0919521
595.896	0.0907599
597.824	0.0894209
599.753	0.0878719
601.682	0.0853836
603.61	0.082454
605.538	0.0795614
607.467	0.0761432
609.395	0.0721436
611.324	0.0685678
613.252	0.0663221
615.181	0.0643255
617.109	0.0631861
619.038	0.0631095
620.966	0.06323
622.894	0.0639785
624.823	0.0645906
626.751	0.0663412
628.68	0.0692288
630.608	0.0719821
632.537	0.0744565
634.465	0.0778705
636.394	0.0820138
638.322	0.0863536
640.251	0.0903199
642.179	0.0943145
644.108	0.0986926
646.036	0.102403
647.965	0.104223
649.893	0.104605
651.822	0.103938
653.75	0.10325
655.678	0.103654
657.607	0.105483
659.535	0.108617
661.464	0.112776
663.392	0.117164
665.321	0.12133
667.249	0.125385
669.178	0.12822
671.106	0.129828
673.035	0.130641
674.963	0.131091
676.892	0.131114
678.82	0.1299
680.749	0.127437
682.677	0.124445
684.606	0.12205
686.534	0.119947
688.462	0.117583
690.391	0.115113
692.319	0.113539
694.248	0.11229
696.176	0.111106
698.105	0.10851
700.033	0.105061
