Measurement: Infrared, Infrared Data Processed
Mineral: Bikitaite
Rruff sample: R050160
Ideal chemistry: LiAlSi_2_O_6_H_2_O
Locality: Foote mine, Kings Mountain, Cleveland County, North Carolina, USA
Source: Jim McGlasson
Description: Colorless prismatic crystals
Measured chemistry: Li_1.00_Si_2.00_O_6_Â·1.25H_2_O ; Li not measured but estimated by stoichiometry
x	intensity
50.1401	0.00474375
52.0686	0.00130174
53.9971	0.000980695
55.9255	0.00219298
57.854	0.00429278
59.7825	0.00419495
61.7109	0.00372187
63.6394	0.00693522
65.5679	0.00914296
67.4963	0.00853423
69.4248	0.00967663
71.3533	0.0115541
73.2817	0.0110227
75.2102	0.0093295
77.1387	0.009179
79.0671	0.0095022
80.9956	0.0104527
82.9241	0.0112533
84.8525	0.0114557
86.781	0.010572
88.7095	0.0109946
90.6379	0.0116706
92.5664	0.0120315
94.4948	0.0121259
96.4233	0.0124284
98.3518	0.0138115
100.28	0.0143674
102.209	0.0149693
104.137	0.0156733
106.066	0.0164401
107.994	0.0172655
109.923	0.0173818
111.851	0.0161684
113.779	0.0145503
115.708	0.0142128
117.636	0.0145428
119.565	0.0149885
121.493	0.0145462
123.422	0.0136025
125.35	0.0135564
127.279	0.0147569
129.207	0.015895
131.136	0.017179
133.064	0.0180991
134.993	0.0181742
136.921	0.0188293
138.85	0.019493
140.778	0.0185891
142.707	0.0172636
144.635	0.0161735
146.563	0.0156141
148.492	0.0156795
150.42	0.0162382
152.349	0.0164886
154.277	0.016713
156.206	0.0172054
158.134	0.0180783
160.063	0.0184667
161.991	0.0192758
163.92	0.0198865
165.848	0.0200846
167.777	0.0205849
169.705	0.0208032
171.633	0.0201004
173.562	0.0197543
175.49	0.0202034
177.419	0.0201245
179.347	0.0200441
181.276	0.0206559
183.204	0.020939
185.133	0.0212863
187.061	0.0221664
188.99	0.0230567
190.918	0.0234224
192.847	0.0243549
194.775	0.0254369
196.704	0.0258499
198.632	0.0260794
200.56	0.0269832
202.489	0.0279367
204.417	0.0277667
206.346	0.0279044
208.274	0.0279727
210.203	0.0273897
212.131	0.0273445
214.06	0.0275782
215.988	0.0276152
217.917	0.0276767
219.845	0.0280472
221.774	0.0282488
223.702	0.0281982
225.631	0.0283615
227.559	0.0291125
229.488	0.029459
231.416	0.02985
233.344	0.0306098
235.273	0.0314587
237.201	0.0317794
239.13	0.0320103
241.058	0.0323689
242.987	0.0327737
244.915	0.0332225
246.844	0.0339252
248.772	0.0342883
250.701	0.0340969
252.629	0.0348084
254.558	0.0354568
256.486	0.0351941
258.414	0.034989
260.343	0.0349719
262.271	0.0351549
264.2	0.0353749
266.128	0.0354235
268.057	0.0354016
269.985	0.0356982
271.914	0.0360934
273.842	0.0368672
275.771	0.0379985
277.699	0.0389019
279.628	0.0394415
281.556	0.0403126
283.485	0.0409692
285.413	0.0414988
287.341	0.0422064
289.27	0.0421617
291.198	0.0415084
293.127	0.041748
295.055	0.0430222
296.984	0.0443595
298.912	0.0454685
300.841	0.0459587
302.769	0.0457504
304.698	0.0448243
306.626	0.0446748
308.555	0.0453369
310.483	0.0458599
312.411	0.0459324
314.34	0.0453783
316.269	0.0446191
318.197	0.0439263
320.125	0.0439014
322.054	0.0446135
323.982	0.0454418
325.911	0.0459906
327.839	0.0464074
329.768	0.0468071
331.696	0.047523
333.625	0.0483863
335.553	0.0490987
337.482	0.049839
339.41	0.0497496
341.339	0.0488483
343.267	0.0475783
345.195	0.0465695
347.124	0.0466248
349.052	0.0469692
350.981	0.0470203
352.909	0.046831
354.838	0.0468126
356.766	0.0474927
358.695	0.0481103
360.623	0.0486971
362.552	0.0495843
364.48	0.0499722
366.409	0.0504703
368.337	0.0514383
370.265	0.0521037
372.194	0.0524927
374.122	0.0532923
376.051	0.0537698
377.979	0.0541225
379.908	0.0545686
381.836	0.0550174
383.765	0.0552898
385.693	0.0554085
387.622	0.0550495
389.55	0.0548146
391.479	0.0547827
393.407	0.0548992
395.336	0.0552506
397.264	0.0559081
399.192	0.0566135
401.121	0.0571299
403.049	0.0574493
404.978	0.0576828
406.906	0.05794
408.835	0.0582134
410.763	0.058474
412.692	0.0589168
414.62	0.0597052
416.549	0.0608043
418.477	0.0614737
420.406	0.0615511
422.334	0.061782
424.262	0.0618396
426.191	0.0622592
428.12	0.063072
430.048	0.0640858
431.976	0.0655167
433.905	0.0670375
435.833	0.0685172
437.762	0.0700115
439.69	0.0710741
441.619	0.0714576
443.547	0.071595
445.476	0.0718243
447.404	0.0720613
449.333	0.0720408
451.261	0.0717497
453.19	0.0715621
455.118	0.0712758
457.046	0.0713624
458.975	0.0713277
460.903	0.0707746
462.832	0.0705843
464.76	0.0704517
466.689	0.0700246
468.617	0.0698275
470.546	0.0689543
472.474	0.0679549
474.403	0.0671891
476.331	0.0662527
478.26	0.0653935
480.188	0.0642628
482.116	0.0627621
484.045	0.0616366
485.974	0.0604181
487.902	0.0591221
489.83	0.0582679
491.759	0.0577465
493.687	0.0573573
495.616	0.0575291
497.544	0.0577773
499.473	0.0578107
501.401	0.0576196
503.33	0.0570358
505.258	0.0563696
507.187	0.0558649
509.115	0.0554451
511.043	0.0549716
512.972	0.0541046
514.9	0.053482
516.829	0.0536686
518.757	0.0538308
520.686	0.0537131
522.614	0.0539524
524.543	0.0543405
526.471	0.054362
528.4	0.0543826
530.328	0.0542722
532.257	0.0539573
534.185	0.0537285
536.114	0.0534875
538.042	0.0530149
539.971	0.0526919
541.899	0.0518482
543.827	0.0507734
545.756	0.0497819
547.684	0.0489036
549.613	0.0481966
551.541	0.0473079
553.47	0.0464594
555.398	0.045968
557.327	0.0450822
559.255	0.0445752
561.184	0.0442633
563.112	0.0435758
565.041	0.0427257
566.969	0.0419038
568.898	0.0411324
570.826	0.0408109
572.755	0.0403622
574.683	0.0398786
576.611	0.039842
578.54	0.0397954
580.468	0.039593
582.397	0.0394779
584.325	0.0392993
586.254	0.0393581
588.182	0.0390565
590.111	0.0389781
592.039	0.0389042
593.968	0.0385231
595.896	0.0384646
597.824	0.0383926
599.753	0.0379326
601.682	0.0375072
603.61	0.0372056
605.538	0.03723
607.467	0.0375422
609.395	0.0380699
611.324	0.037848
613.252	0.0378103
615.181	0.0387308
617.109	0.0401144
619.038	0.0419168
620.966	0.043083
622.894	0.0432432
624.823	0.0435095
626.751	0.0441433
628.68	0.0446657
630.608	0.044983
632.537	0.0452453
634.465	0.0453227
636.394	0.0458245
638.322	0.0463055
640.251	0.0467772
642.179	0.0477107
644.108	0.0486658
646.036	0.0496184
647.965	0.0505335
649.893	0.0513992
651.822	0.0523643
653.75	0.053319
655.678	0.0545492
657.607	0.056115
659.535	0.0579253
661.464	0.0599995
663.392	0.062662
665.321	0.064974
667.249	0.0675024
669.178	0.0704089
671.106	0.072597
673.035	0.0748088
674.963	0.0770598
676.892	0.0791887
678.82	0.0811542
680.749	0.0820555
682.677	0.0824611
684.606	0.0819002
686.534	0.0800075
688.462	0.0768386
690.391	0.0739611
692.319	0.0724076
694.248	0.0713158
696.176	0.0701473
698.105	0.0689653
700.033	0.0687141
