Measurement: Infrared, Infrared Data Processed
Mineral: Bismuth
Rruff sample: R050650
Ideal chemistry: Bi
Locality: Wolfram Camp, Queensland, Australia
Source: University of Arizona Mineral Museum
Description: Gray metallic fragment
Measured chemistry: Bi
x	intensity
399.193	0.267345
408.835	0.270357
418.477	0.277309
428.12	0.290761
437.762	0.287895
447.404	0.298451
457.047	0.298062
466.689	0.305432
476.331	0.309991
485.974	0.316923
495.616	0.321434
505.258	0.327957
514.901	0.331807
524.543	0.335347
534.185	0.339402
543.828	0.347262
553.47	0.350564
563.112	0.357009
572.755	0.359926
582.397	0.366232
592.039	0.370987
601.682	0.374695
611.324	0.380174
620.966	0.385149
630.609	0.389019
640.251	0.394037
649.893	0.397325
659.536	0.402246
669.178	0.406163
678.82	0.410343
688.463	0.413706
698.105	0.418715
707.747	0.420896
717.39	0.425595
727.032	0.429588
736.674	0.435304
746.317	0.439487
755.959	0.44409
765.601	0.448105
775.244	0.451742
784.886	0.455944
794.528	0.45859
804.171	0.463978
813.813	0.468092
823.455	0.47204
833.098	0.475811
842.74	0.479264
852.382	0.482827
862.025	0.487717
871.667	0.490021
881.309	0.494158
890.952	0.498829
900.594	0.502078
910.236	0.507371
919.879	0.510877
929.521	0.514424
939.163	0.518569
948.806	0.523204
958.448	0.525091
968.09	0.530074
977.733	0.534066
987.375	0.537156
997.017	0.540185
1006.66	0.545074
1016.3	0.54803
1025.94	0.551097
1035.59	0.553923
1045.23	0.556646
1054.87	0.559387
1064.51	0.562354
1074.16	0.565284
1083.8	0.56769
1093.44	0.571053
1103.08	0.573791
1112.72	0.577644
1122.37	0.581583
1132.01	0.586244
1141.65	0.593303
1151.3	0.595062
1160.94	0.597261
1170.58	0.600327
1180.22	0.603379
1189.86	0.608194
1199.51	0.613749
1209.15	0.617569
1218.79	0.619924
1228.43	0.623072
1238.08	0.625425
1247.72	0.628224
1257.36	0.631079
1267	0.633008
1276.64	0.636814
1286.29	0.639944
1295.93	0.643724
1305.57	0.646489
1315.21	0.649231
1324.86	0.652073
1334.5	0.655476
1344.14	0.658793
1353.78	0.662059
1363.43	0.665784
1373.07	0.668765
1382.71	0.672354
1392.35	0.67484
1401.99	0.678221
1411.64	0.681285
1421.28	0.683964
1430.92	0.686187
1440.57	0.688814
1450.21	0.691312
1459.85	0.695081
1469.49	0.698519
1479.13	0.704178
1488.78	0.708171
1498.42	0.711094
1508.06	0.714534
1517.7	0.717888
1527.35	0.7213
1536.99	0.724066
1546.63	0.726125
1556.27	0.729592
1565.91	0.732224
1575.56	0.735667
1585.2	0.737807
1594.84	0.741026
1604.48	0.743696
1614.13	0.747859
1623.77	0.75049
1633.41	0.753936
1643.05	0.756797
1652.7	0.759135
1662.34	0.761444
1671.98	0.763219
1681.62	0.764945
1691.27	0.766517
1700.91	0.767586
1710.55	0.767377
1720.19	0.770672
1729.84	0.773609
1739.48	0.773161
1749.12	0.773751
1758.76	0.781061
1768.4	0.784433
1778.05	0.78617
1787.69	0.790399
1797.33	0.791304
1806.97	0.794454
1816.62	0.794519
1826.26	0.797257
1835.9	0.797316
1845.54	0.798633
1855.18	0.800648
1864.83	0.802973
1874.47	0.806359
1884.11	0.8045
1893.75	0.80388
1903.4	0.805628
1913.04	0.805694
1922.68	0.804854
1932.32	0.80033
1941.97	0.798844
1951.61	0.791262
1961.25	0.788407
1970.89	0.788573
1980.54	0.788818
1990.18	0.788297
1999.82	0.8012
2009.46	0.794485
2019.11	0.787938
2028.75	0.792156
2038.39	0.803779
2048.03	0.81592
2057.67	0.823776
2067.32	0.835306
2076.96	0.841099
2086.6	0.848668
2096.24	0.846848
2105.89	0.851857
2115.53	0.85543
2125.17	0.852541
2134.81	0.848333
2144.45	0.837325
2154.1	0.825679
2163.74	0.832218
2173.38	0.844313
2183.02	0.844611
2192.67	0.853502
2202.31	0.859556
2211.95	0.862612
2221.59	0.87132
2231.24	0.87823
2240.88	0.888671
2250.52	0.891715
2260.16	0.898355
2269.8	0.905321
2279.45	0.911603
2289.09	0.921872
2298.73	0.92809
2308.38	0.935985
2318.02	0.941785
2327.66	0.946654
2337.3	0.951008
2346.94	0.951839
2356.59	0.955925
2366.23	0.956416
2375.87	0.955094
2385.51	0.957788
2395.16	0.959717
2404.8	0.963537
2414.44	0.96353
2424.08	0.967533
2433.72	0.966998
2443.37	0.970077
2453.01	0.971985
2462.65	0.973525
2472.29	0.977504
2481.94	0.979546
2491.58	0.982248
2501.22	0.986245
2510.86	0.986822
2520.51	0.989262
2530.15	0.991873
2539.79	0.993648
2549.43	0.997906
2559.07	1.00417
2568.72	1.00417
2578.36	1.0078
2588	1.01204
2597.64	1.01496
2607.29	1.02194
2616.93	1.02243
2626.57	1.0271
2636.21	1.03426
2645.86	1.0383
2655.5	1.04468
2665.14	1.04844
2674.78	1.0506
2684.43	1.05316
2694.07	1.0542
2703.71	1.06012
2713.35	1.06242
2722.99	1.06363
2732.64	1.06683
2742.28	1.06733
2751.92	1.07156
2761.56	1.07504
2771.21	1.07753
2780.85	1.07949
2790.49	1.08018
2800.13	1.0838
2809.78	1.08806
2819.42	1.08792
2829.06	1.0914
2838.7	1.09296
2848.34	1.09859
2857.99	1.09606
2867.63	1.10191
2877.27	1.10519
2886.91	1.1055
2896.56	1.10951
2906.2	1.10796
2915.84	1.11569
2925.48	1.10899
2935.13	1.11593
2944.77	1.11534
2954.41	1.11685
2964.05	1.12069
2973.7	1.12137
2983.34	1.12556
2992.98	1.12832
3002.62	1.13209
3012.26	1.13685
3021.91	1.13337
3031.55	1.1399
3041.19	1.13993
3050.83	1.14276
3060.48	1.14478
3070.12	1.14518
3079.76	1.1494
3089.4	1.15243
3099.05	1.15308
3108.69	1.15619
3118.33	1.15863
3127.97	1.16098
3137.61	1.16693
3147.26	1.16466
3156.9	1.16925
3166.54	1.17131
3176.18	1.17551
3185.83	1.1773
3195.47	1.17693
3205.11	1.18096
3214.75	1.1871
3224.4	1.18903
3234.04	1.18704
3243.68	1.19681
3253.32	1.19372
3262.97	1.19806
3272.61	1.2018
3282.25	1.20386
3291.89	1.21134
3301.53	1.21113
3311.18	1.2133
3320.82	1.21378
3330.46	1.217
3340.1	1.21832
3349.75	1.22315
3359.39	1.22026
3369.03	1.22456
3378.67	1.2251
3388.32	1.22278
3397.96	1.2307
3407.6	1.23331
3417.24	1.23553
3426.89	1.23307
3436.53	1.23746
3446.17	1.23576
3455.81	1.24093
3465.45	1.24044
3475.1	1.24263
3484.74	1.24768
3494.38	1.24934
3504.02	1.24947
3513.67	1.25868
3523.31	1.25425
3532.95	1.25899
3542.59	1.26005
3552.24	1.26135
3561.88	1.26818
3571.52	1.27179
3581.16	1.2675
3590.8	1.26777
3600.45	1.2772
3610.09	1.28032
3619.73	1.27471
3629.37	1.27902
3639.02	1.29019
3648.66	1.28959
3658.3	1.29058
3667.94	1.28869
3677.59	1.29427
3687.23	1.30179
3696.87	1.30118
3706.51	1.29917
3716.16	1.30425
3725.8	1.3025
3735.44	1.3092
3745.08	1.31904
3754.72	1.32566
3764.37	1.31693
3774.01	1.32481
3783.65	1.32324
3793.29	1.32128
3802.94	1.32724
3812.58	1.32467
3822.22	1.33759
3831.86	1.33196
3841.51	1.33761
3851.15	1.34769
3860.79	1.34668
3870.43	1.35038
3880.07	1.34325
3889.72	1.34727
3899.36	1.35117
3909	1.36411
3918.64	1.35741
3928.29	1.35927
3937.93	1.35546
3947.57	1.36149
3957.21	1.36721
3966.86	1.37215
3976.5	1.37513
3986.14	1.38098
3995.78	1.3801
