Measurement: Infrared, Infrared Data Processed
Mineral: Blodite
Rruff sample: R050341
Ideal chemistry: Na_2_Mg(S^6+^O_4_)_2_4H_2_O
Locality: Soda Lake, San Luis Obispo County, California, USA
Source: George Rossman
Description: Gray to colorless equant crystal
Measured chemistry: Na_2.00_Mg_1.00_(S_1.00_O_4_)_2_Â·4H_2_O
x	intensity
399.193	0.112082
408.835	0.105462
418.477	0.120344
428.12	0.12576
437.762	0.129471
447.404	0.119134
457.047	0.100471
466.689	0.0944828
476.331	0.0880875
485.974	0.0740044
495.616	0.0703854
505.258	0.0734886
514.901	0.0774467
524.543	0.0854029
534.185	0.0921174
543.828	0.103557
553.47	0.117446
563.112	0.133659
572.755	0.153863
582.397	0.17687
592.039	0.192617
601.682	0.201763
611.324	0.209192
620.966	0.18277
630.609	0.16543
640.251	0.149635
649.893	0.13103
659.536	0.12736
669.178	0.113657
678.82	0.105492
688.463	0.104377
698.105	0.105511
707.747	0.107811
717.39	0.108253
727.032	0.101148
736.674	0.0914147
746.317	0.0800979
755.959	0.0714254
765.601	0.066117
775.244	0.0640935
784.886	0.0649945
794.528	0.0690894
804.171	0.0760645
813.813	0.0841686
823.455	0.0893596
833.098	0.085516
842.74	0.0730668
852.382	0.0618198
862.025	0.0565404
871.667	0.0566379
881.309	0.0529444
890.952	0.0440887
900.594	0.0384528
910.236	0.0356479
919.879	0.0347237
929.521	0.0348383
939.163	0.0362443
948.806	0.0385684
958.448	0.0415577
968.09	0.0477984
977.733	0.057706
987.375	0.0863836
997.017	0.110446
1006.66	0.0719352
1016.3	0.0895521
1025.94	0.11513
1035.59	0.148978
1045.23	0.193601
1054.87	0.252516
1064.51	0.319198
1074.16	0.377112
1083.8	0.40025
1093.44	0.385342
1103.08	0.36296
1112.72	0.353584
1122.37	0.333489
1132.01	0.261166
1141.65	0.238384
1151.3	0.291245
1160.94	0.227884
1170.58	0.140679
1180.22	0.0869189
1189.86	0.0542309
1199.51	0.0299218
1209.15	0.0172885
1218.79	0.0126038
1228.43	0.0105471
1238.08	0.00919129
1247.72	0.00844292
1257.36	0.00795167
1267	0.00723589
1276.64	0.00732435
1286.29	0.00733087
1295.93	0.0075708
1305.57	0.0074143
1315.21	0.00721299
1324.86	0.00764943
1334.5	0.0072151
1344.14	0.00783313
1353.78	0.00764324
1363.43	0.00787592
1373.07	0.0081697
1382.71	0.00905789
1392.35	0.00891899
1401.99	0.00951952
1411.64	0.0103787
1421.28	0.0106999
1430.92	0.0117406
1440.57	0.0120618
1450.21	0.0125274
1459.85	0.01296
1469.49	0.0128934
1479.13	0.0127129
1488.78	0.0127329
1498.42	0.0136804
1508.06	0.0143676
1517.7	0.015133
1527.35	0.016581
1536.99	0.0188165
1546.63	0.02073
1556.27	0.0229455
1565.91	0.0247161
1575.56	0.0260013
1585.2	0.0256578
1594.84	0.0250181
1604.48	0.0246898
1614.13	0.0247794
1623.77	0.0261205
1633.41	0.0282968
1643.05	0.0333595
1652.7	0.0418832
1662.34	0.0527718
1671.98	0.0592124
1681.62	0.0479787
1691.27	0.0325007
1700.91	0.0245934
1710.55	0.019619
1720.19	0.0173494
1729.84	0.0160971
1739.48	0.0159791
1749.12	0.0150012
1758.76	0.014745
1768.4	0.0144325
1778.05	0.0137246
1787.69	0.0116047
1797.33	0.0106071
1806.97	0.00964525
1816.62	0.00861383
1826.26	0.00794272
1835.9	0.00786436
1845.54	0.00752552
1855.18	0.00669624
1864.83	0.00629801
1874.47	0.00796673
1884.11	0.00627739
1893.75	0.00574361
1903.4	0.00660575
1913.04	0.00663794
1922.68	0.00577758
1932.32	0.0053684
1941.97	0.00562408
1951.61	0.00361911
1961.25	0.00178458
1970.89	0.00554246
1980.54	0.00559897
1990.18	0.00148426
1999.82	0.00504518
2009.46	0.00601576
2019.11	-0.000626238
2028.75	0.00484403
2038.39	0.00535364
2048.03	0.00851726
2057.67	0.0085034
2067.32	0.0113811
2076.96	0.00946281
2086.6	0.00905879
2096.24	0.00735435
2105.89	0.00802824
2115.53	0.00874106
2125.17	0.00725163
2134.81	0.00240833
2144.45	0.000443343
2154.1	-0.00432972
2163.74	0.00182565
2173.38	0.000419352
2183.02	0.000984304
2192.67	0.00172668
2202.31	0.0010437
2211.95	0.0014927
2221.59	0.0083504
2231.24	0.00586572
2240.88	0.00577872
2250.52	0.00611704
2260.16	0.00619065
2269.8	0.00658193
2279.45	0.0102626
2289.09	0.0109198
2298.73	0.0108933
2308.38	0.0104703
2318.02	0.0112773
2327.66	0.0120771
2337.3	0.0111481
2346.94	0.0117189
2356.59	0.011344
2366.23	0.0112318
2375.87	0.0107022
2385.51	0.0113767
2395.16	0.00975312
2404.8	0.0111998
2414.44	0.010588
2424.08	0.012168
2433.72	0.0109628
2443.37	0.0114848
2453.01	0.0117728
2462.65	0.0126328
2472.29	0.0105486
2481.94	0.0108451
2491.58	0.0109146
2501.22	0.0109802
2510.86	0.0124784
2520.51	0.0117402
2530.15	0.0113839
2539.79	0.0105715
2549.43	0.0124589
2559.07	0.0118485
2568.72	0.0136812
2578.36	0.0126249
2588	0.0122955
2597.64	0.0136816
2607.29	0.0128855
2616.93	0.0130704
2626.57	0.0152569
2636.21	0.0159261
2645.86	0.0151171
2655.5	0.0162875
2665.14	0.0153159
2674.78	0.0151717
2684.43	0.0158391
2694.07	0.0160462
2703.71	0.0167795
2713.35	0.0174568
2722.99	0.0173703
2732.64	0.0181147
2742.28	0.0193234
2751.92	0.0187923
2761.56	0.0195103
2771.21	0.0215919
2780.85	0.0204436
2790.49	0.0226818
2800.13	0.0230491
2809.78	0.0252931
2819.42	0.0257183
2829.06	0.0279473
2838.7	0.028599
2848.34	0.031753
2857.99	0.031514
2867.63	0.0337217
2877.27	0.0353949
2886.91	0.0388884
2896.56	0.0425257
2906.2	0.0437676
2915.84	0.0470059
2925.48	0.0494448
2935.13	0.0486268
2944.77	0.0527213
2954.41	0.0543305
2964.05	0.0584016
2973.7	0.0627323
2983.34	0.0667993
2992.98	0.0712836
3002.62	0.0748672
3012.26	0.0822084
3021.91	0.0886339
3031.55	0.0948576
3041.19	0.101428
3050.83	0.112829
3060.48	0.116888
3070.12	0.129002
3079.76	0.137508
3089.4	0.145543
3099.05	0.157593
3108.69	0.167692
3118.33	0.180711
3127.97	0.198491
3137.61	0.208828
3147.26	0.224416
3156.9	0.234898
3166.54	0.238862
3176.18	0.234884
3185.83	0.225162
3195.47	0.212479
3205.11	0.200955
3214.75	0.188252
3224.4	0.18105
3234.04	0.173662
3243.68	0.170641
3253.32	0.166393
3262.97	0.16582
3272.61	0.163528
3282.25	0.16248
3291.89	0.162148
3301.53	0.164477
3311.18	0.164684
3320.82	0.163455
3330.46	0.165436
3340.1	0.162668
3349.75	0.159745
3359.39	0.160224
3369.03	0.154039
3378.67	0.15156
3388.32	0.151721
3397.96	0.147695
3407.6	0.146501
3417.24	0.143826
3426.89	0.140895
3436.53	0.136429
3446.17	0.129853
3455.81	0.124263
3465.45	0.11583
3475.1	0.108755
3484.74	0.0966087
3494.38	0.0885902
3504.02	0.0810199
3513.67	0.0766326
3523.31	0.0641704
3532.95	0.059849
3542.59	0.0494406
3552.24	0.0413016
3561.88	0.0327573
3571.52	0.0249048
3581.16	0.0251581
3590.8	0.0188342
3600.45	0.0147512
3610.09	0.0144518
3619.73	0.0091049
3629.37	0.0128392
3639.02	0.0081109
3648.66	0.0056111
3658.3	0.00695009
3667.94	0.00731939
3677.59	0.00789302
3687.23	0.00798137
3696.87	0.00444576
3706.51	0.00800978
3716.16	0.00586826
3725.8	0.00625721
3735.44	0.00691839
3745.08	0.00671805
3754.72	0.0109063
3764.37	0.00711439
3774.01	0.00888181
3783.65	0.0125228
3793.29	0.00686903
3802.94	0.00978119
3812.58	0.00539862
3822.22	0.00628324
3831.86	0.00820436
3841.51	0.00848712
3851.15	0.011399
3860.79	0.010534
3870.43	0.00883876
3880.07	0.00632621
3889.72	0.0103687
3899.36	0.008933
3909	0.0115589
3918.64	0.011668
3928.29	0.0109702
3937.93	0.0112214
3947.57	0.0073717
3957.21	0.0119886
3966.86	0.010969
3976.5	0.00757432
3986.14	0.00507946
3995.78	0.0139296
