Measurement: Infrared, Infrared Data Processed
Mineral: Bobdownsite
Rruff sample: R050109
Ideal chemistry: Ca_9_Mg(PO_4_)_6_(PO_3_F)
Locality: Big Fish River, Yukon Territory, Canada
Source: Rock Currier
Description: Colorless hexagonal tabular crystals, type sample
Measured chemistry: (Ca_8.76_Na_0.24_)_Σ=9_(Mg_0.72_Fe^3+^_0.13_Al_0.11_Fe^2+^_0.04_)_Σ=1_(P_1.00_O_4_)_6_(P_1.00_O_3_F_1.00_); Fe^2+^ and Fe^3+^ by charge balance
x	intensity
50.1401	0.0260535
52.0686	0.0265882
53.9971	0.0209604
55.9255	0.0223379
57.854	0.0254854
59.7825	0.0331854
61.7109	0.0314334
63.6394	0.0310669
65.5679	0.032417
67.4963	0.0337317
69.4248	0.0320273
71.3533	0.0366008
73.2817	0.0358844
75.2102	0.0345238
77.1387	0.0370342
79.0671	0.0403614
80.9956	0.03935
82.9241	0.0400202
84.8525	0.0408209
86.781	0.0403809
88.7095	0.0389488
90.6379	0.0396041
92.5664	0.0407371
94.4948	0.0429948
96.4233	0.0434703
98.3518	0.0430312
100.28	0.0428343
102.209	0.044815
104.137	0.0460837
106.066	0.047967
107.994	0.0490427
109.923	0.0500794
111.851	0.0518175
113.779	0.0519093
115.708	0.0510987
117.636	0.0514484
119.565	0.05086
121.493	0.0512618
123.422	0.0509587
125.35	0.0521355
127.279	0.0531465
129.207	0.0545614
131.136	0.0559593
133.064	0.0568544
134.993	0.0572892
136.921	0.0584621
138.85	0.0591456
140.778	0.0611517
142.707	0.062697
144.635	0.0641269
146.563	0.0651917
148.492	0.0666794
150.42	0.067348
152.349	0.0684386
154.277	0.0690092
156.206	0.0703607
158.134	0.0702974
160.063	0.0695285
161.991	0.0683188
163.92	0.0684568
165.848	0.0683982
167.777	0.0688464
169.705	0.0703766
171.633	0.072017
173.562	0.0725578
175.49	0.0736199
177.419	0.073246
179.347	0.0729038
181.276	0.0725333
183.204	0.0724837
185.133	0.0721576
187.061	0.0719473
188.99	0.0716121
190.918	0.0715301
192.847	0.0712404
194.775	0.0716725
196.704	0.0724746
198.632	0.0734238
200.56	0.0742088
202.489	0.0763132
204.417	0.0772232
206.346	0.0778193
208.274	0.0787373
210.203	0.0798969
212.131	0.0804111
214.06	0.0812178
215.988	0.0818412
217.917	0.0821411
219.845	0.0824786
221.774	0.0840445
223.702	0.0848223
225.631	0.0855428
227.559	0.0861423
229.488	0.0859618
231.416	0.0862304
233.344	0.0862134
235.273	0.0854479
237.201	0.0856613
239.13	0.0853097
241.058	0.084863
242.987	0.0848736
244.915	0.0851372
246.844	0.0848189
248.772	0.0844193
250.701	0.0834965
252.629	0.0832038
254.558	0.0827167
256.486	0.0824842
258.414	0.0830174
260.343	0.0840937
262.271	0.0849168
264.2	0.0851201
266.128	0.0847179
268.057	0.0840572
269.985	0.0832209
271.914	0.0827529
273.842	0.0825626
275.771	0.0832799
277.699	0.0843916
279.628	0.0854001
281.556	0.0863715
283.485	0.0873004
285.413	0.0877171
287.341	0.0879536
289.27	0.0876624
291.198	0.0870356
293.127	0.0858355
295.055	0.0843438
296.984	0.0824762
298.912	0.0801502
300.841	0.0780392
302.769	0.0759306
304.698	0.0740448
306.626	0.0732397
308.555	0.072339
310.483	0.0714003
312.411	0.0713735
314.34	0.0719864
316.269	0.072636
318.197	0.0730755
320.125	0.0731204
322.054	0.0723352
323.982	0.0711135
325.911	0.0698561
327.839	0.0685362
329.768	0.0678049
331.696	0.0680603
333.625	0.068779
335.553	0.0701623
337.482	0.0719618
339.41	0.0737441
341.339	0.0753042
343.267	0.0761724
345.195	0.0767044
347.124	0.0766257
349.052	0.0758848
350.981	0.0744975
352.909	0.0727733
354.838	0.0704609
356.766	0.0677227
358.695	0.0645805
360.623	0.0613449
362.552	0.0580357
364.48	0.0548246
366.409	0.0521064
368.337	0.0497975
370.265	0.0477047
372.194	0.045319
374.122	0.0429569
376.051	0.0407109
377.979	0.0386074
379.908	0.0366064
381.836	0.0347294
383.765	0.0332281
385.693	0.0322226
387.622	0.0317134
389.55	0.0317396
391.479	0.0323692
393.407	0.0328214
395.336	0.0333434
397.264	0.0338831
399.192	0.0340101
401.121	0.0339144
403.049	0.0336256
404.978	0.0328451
406.906	0.0320742
408.835	0.0315066
410.763	0.031365
412.692	0.0317557
414.62	0.0320724
416.549	0.0322166
418.477	0.0322918
420.406	0.0319627
422.334	0.0313902
424.262	0.0310572
426.191	0.0308406
428.12	0.0308047
430.048	0.0306891
431.976	0.0306564
433.905	0.0305103
435.833	0.0301425
437.762	0.0295612
439.69	0.0287117
441.619	0.0279847
443.547	0.0278398
445.476	0.0276283
447.404	0.0268987
449.333	0.0266536
451.261	0.0267819
453.19	0.0267457
455.118	0.026851
457.046	0.0271137
458.975	0.0273507
460.903	0.027583
462.832	0.0278383
464.76	0.0281474
466.689	0.0280982
468.617	0.0279139
470.546	0.0279512
472.474	0.0283848
474.403	0.0290944
476.331	0.0296259
478.26	0.0304118
480.188	0.0316607
482.116	0.0328452
484.045	0.0337299
485.974	0.0340987
487.902	0.0342493
489.83	0.0343284
491.759	0.034192
493.687	0.0341722
495.616	0.0344047
497.544	0.0345361
499.473	0.0348599
501.401	0.0357527
503.33	0.0370243
505.258	0.0385962
507.187	0.040552
509.115	0.0423597
511.043	0.0443933
512.972	0.046869
514.9	0.0495568
516.829	0.0524998
518.757	0.0554932
520.686	0.0586965
522.614	0.0621043
524.543	0.0657857
526.471	0.0701192
528.4	0.0752413
530.328	0.0803795
532.257	0.0859531
534.185	0.0922667
536.114	0.0974838
538.042	0.101137
539.971	0.104301
541.899	0.106505
543.827	0.106041
545.756	0.104071
547.684	0.104079
549.613	0.106977
551.541	0.110453
553.47	0.112165
555.398	0.111723
557.327	0.108416
559.255	0.101712
561.184	0.0934881
563.112	0.085804
565.041	0.0785266
566.969	0.0723193
568.898	0.0673649
570.826	0.0618466
572.755	0.0556466
574.683	0.0499763
576.611	0.0466891
578.54	0.0456223
580.468	0.0465013
582.397	0.0497699
584.325	0.0546731
586.254	0.0603469
588.182	0.0664991
590.111	0.0717495
592.039	0.075598
593.968	0.0781931
595.896	0.0801918
597.824	0.0835493
599.753	0.0874272
601.682	0.0883224
603.61	0.0856006
605.538	0.0804181
607.467	0.0745716
609.395	0.0700923
611.324	0.0677093
613.252	0.0658262
615.181	0.063883
617.109	0.0620202
619.038	0.0599798
620.966	0.0556036
622.894	0.0496047
624.823	0.044161
626.751	0.0393303
628.68	0.0360933
630.608	0.0343089
632.537	0.0325278
634.465	0.0306824
636.394	0.0294388
638.322	0.0284243
640.251	0.0280259
642.179	0.0285464
644.108	0.0288494
646.036	0.0287617
647.965	0.028147
649.893	0.02758
651.822	0.0272938
653.75	0.027195
655.678	0.0270663
657.607	0.0271869
659.535	0.0273368
661.464	0.0272372
663.392	0.0275766
665.321	0.0280272
667.249	0.0281508
669.178	0.0278352
671.106	0.027811
673.035	0.0278485
674.963	0.0284658
676.892	0.0288021
678.82	0.0290022
680.749	0.0290647
682.677	0.0290595
684.606	0.0293133
686.534	0.0295655
688.462	0.029943
690.391	0.0302559
692.319	0.0302418
694.248	0.0301076
696.176	0.0300764
698.105	0.0303253
700.033	0.0306098
