Measurement: Infrared, Infrared Data Processed
Mineral: Boulangerite
Rruff sample: R050436
Ideal chemistry: Pb^2+^_5_Sb^3+^_4_S^2-^_11_
Locality: Noche Buena mine, Noche Buena, Municipio de Mazapil, Zacatecas, Mexico
Source: University of Arizona Mineral Museum
Description: Mass of lead-gray acicular crystals
Measured chemistry: Pb_5.00_Sb_4.00_S_11.00_
x	intensity
399.193	0.18289
408.835	0.193833
418.477	0.208103
428.12	0.224441
437.762	0.236001
447.404	0.250443
457.047	0.258228
466.689	0.261661
476.331	0.267558
485.974	0.274749
495.616	0.281828
505.258	0.291206
514.901	0.303973
524.543	0.31004
534.185	0.316255
543.828	0.324768
553.47	0.334998
563.112	0.342322
572.755	0.350089
582.397	0.356685
592.039	0.365291
601.682	0.370687
611.324	0.376556
620.966	0.381692
630.609	0.388342
640.251	0.392239
649.893	0.397579
659.536	0.402192
669.178	0.407167
678.82	0.4112
688.463	0.416488
698.105	0.423017
707.747	0.42664
717.39	0.431677
727.032	0.436734
736.674	0.440769
746.317	0.445736
755.959	0.451314
765.601	0.457057
775.244	0.462234
784.886	0.465985
794.528	0.472291
804.171	0.47453
813.813	0.478561
823.455	0.48365
833.098	0.488953
842.74	0.493034
852.382	0.497009
862.025	0.501015
871.667	0.509161
881.309	0.512011
890.952	0.515607
900.594	0.52027
910.236	0.526671
919.879	0.529886
929.521	0.535723
939.163	0.540114
948.806	0.545563
958.448	0.550714
968.09	0.556107
977.733	0.561689
987.375	0.567391
997.017	0.571266
1006.66	0.578471
1016.3	0.583295
1025.94	0.590064
1035.59	0.59506
1045.23	0.600085
1054.87	0.605412
1064.51	0.610837
1074.16	0.615968
1083.8	0.620212
1093.44	0.623459
1103.08	0.627422
1112.72	0.63244
1122.37	0.636041
1132.01	0.641146
1141.65	0.648148
1151.3	0.650371
1160.94	0.65131
1170.58	0.651303
1180.22	0.653565
1189.86	0.656678
1199.51	0.659965
1209.15	0.661864
1218.79	0.664439
1228.43	0.667548
1238.08	0.670883
1247.72	0.672809
1257.36	0.674834
1267	0.676232
1276.64	0.680707
1286.29	0.684606
1295.93	0.68816
1305.57	0.691094
1315.21	0.694702
1324.86	0.697555
1334.5	0.701595
1344.14	0.705121
1353.78	0.709301
1363.43	0.714403
1373.07	0.718252
1382.71	0.72271
1392.35	0.726642
1401.99	0.732831
1411.64	0.739083
1421.28	0.742861
1430.92	0.745486
1440.57	0.748578
1450.21	0.751407
1459.85	0.75341
1469.49	0.753359
1479.13	0.754362
1488.78	0.756357
1498.42	0.759548
1508.06	0.763615
1517.7	0.765454
1527.35	0.768551
1536.99	0.771118
1546.63	0.775264
1556.27	0.777832
1565.91	0.781538
1575.56	0.785093
1585.2	0.788454
1594.84	0.790019
1604.48	0.792642
1614.13	0.796882
1623.77	0.799963
1633.41	0.802584
1643.05	0.806252
1652.7	0.808587
1662.34	0.80983
1671.98	0.81201
1681.62	0.815562
1691.27	0.81698
1700.91	0.820482
1710.55	0.82225
1720.19	0.825662
1729.84	0.829568
1739.48	0.831879
1749.12	0.832921
1758.76	0.833417
1768.4	0.836473
1778.05	0.836925
1787.69	0.837741
1797.33	0.839187
1806.97	0.839977
1816.62	0.843009
1826.26	0.844278
1835.9	0.846307
1845.54	0.849198
1855.18	0.848063
1864.83	0.852698
1874.47	0.855629
1884.11	0.855036
1893.75	0.853768
1903.4	0.85512
1913.04	0.858596
1922.68	0.855276
1932.32	0.854875
1941.97	0.849685
1951.61	0.848853
1961.25	0.835099
1970.89	0.827188
1980.54	0.8347
1990.18	0.844962
1999.82	0.849426
2009.46	0.840425
2019.11	0.842379
2028.75	0.845346
2038.39	0.85721
2048.03	0.864566
2057.67	0.879196
2067.32	0.88552
2076.96	0.89152
2086.6	0.896169
2096.24	0.897545
2105.89	0.905829
2115.53	0.906956
2125.17	0.909924
2134.81	0.89986
2144.45	0.889685
2154.1	0.870784
2163.74	0.881559
2173.38	0.889109
2183.02	0.898108
2192.67	0.90074
2202.31	0.913288
2211.95	0.912247
2221.59	0.919114
2231.24	0.927827
2240.88	0.935683
2250.52	0.941945
2260.16	0.941118
2269.8	0.95075
2279.45	0.957666
2289.09	0.967261
2298.73	0.970787
2308.38	0.976074
2318.02	0.980497
2327.66	0.986961
2337.3	0.98764
2346.94	0.990351
2356.59	0.992743
2366.23	0.993036
2375.87	0.997052
2385.51	0.997618
2395.16	0.999816
2404.8	1.00267
2414.44	1.00242
2424.08	1.00421
2433.72	1.00408
2443.37	1.01033
2453.01	1.01246
2462.65	1.01628
2472.29	1.01704
2481.94	1.01998
2491.58	1.02317
2501.22	1.02822
2510.86	1.02805
2520.51	1.03138
2530.15	1.03601
2539.79	1.03545
2549.43	1.03981
2559.07	1.03884
2568.72	1.04266
2578.36	1.04572
2588	1.0526
2597.64	1.05393
2607.29	1.05732
2616.93	1.06161
2626.57	1.06705
2636.21	1.06964
2645.86	1.07357
2655.5	1.07592
2665.14	1.08081
2674.78	1.08132
2684.43	1.08441
2694.07	1.08703
2703.71	1.09149
2713.35	1.09291
2722.99	1.09792
2732.64	1.09877
2742.28	1.10236
2751.92	1.10332
2761.56	1.10852
2771.21	1.11163
2780.85	1.11023
2790.49	1.1141
2800.13	1.11891
2809.78	1.11894
2819.42	1.12452
2829.06	1.12772
2838.7	1.13093
2848.34	1.13712
2857.99	1.14011
2867.63	1.14369
2877.27	1.14601
2886.91	1.14656
2896.56	1.15251
2906.2	1.1555
2915.84	1.15859
2925.48	1.15787
2935.13	1.16392
2944.77	1.15897
2954.41	1.1615
2964.05	1.1675
2973.7	1.16365
2983.34	1.1646
2992.98	1.16654
3002.62	1.16713
3012.26	1.16977
3021.91	1.17372
3031.55	1.17315
3041.19	1.17542
3050.83	1.17971
3060.48	1.18308
3070.12	1.18661
3079.76	1.18746
3089.4	1.19437
3099.05	1.19369
3108.69	1.19907
3118.33	1.20194
3127.97	1.20349
3137.61	1.20359
3147.26	1.21108
3156.9	1.21754
3166.54	1.21854
3176.18	1.21852
3185.83	1.22273
3195.47	1.2244
3205.11	1.23222
3214.75	1.23008
3224.4	1.2375
3234.04	1.24371
3243.68	1.24387
3253.32	1.24759
3262.97	1.25101
3272.61	1.25113
3282.25	1.26093
3291.89	1.26139
3301.53	1.26427
3311.18	1.26729
3320.82	1.27104
3330.46	1.26911
3340.1	1.27851
3349.75	1.27591
3359.39	1.28019
3369.03	1.28182
3378.67	1.28951
3388.32	1.29427
3397.96	1.29176
3407.6	1.29686
3417.24	1.29809
3426.89	1.30339
3436.53	1.30155
3446.17	1.30563
3455.81	1.30621
3465.45	1.31632
3475.1	1.316
3484.74	1.31539
3494.38	1.31811
3504.02	1.32245
3513.67	1.32464
3523.31	1.32906
3532.95	1.3321
3542.59	1.33631
3552.24	1.33413
3561.88	1.34279
3571.52	1.34207
3581.16	1.33985
3590.8	1.34493
3600.45	1.34646
3610.09	1.34662
3619.73	1.35243
3629.37	1.35446
3639.02	1.36966
3648.66	1.36084
3658.3	1.36794
3667.94	1.36765
3677.59	1.37237
3687.23	1.37682
3696.87	1.38192
3706.51	1.3854
3716.16	1.37734
3725.8	1.38395
3735.44	1.38268
3745.08	1.38712
3754.72	1.39817
3764.37	1.4029
3774.01	1.40195
3783.65	1.41228
3793.29	1.41738
3802.94	1.41906
3812.58	1.42488
3822.22	1.42815
3831.86	1.43174
3841.51	1.43355
3851.15	1.43878
3860.79	1.43653
3870.43	1.44753
3880.07	1.44051
3889.72	1.45005
3899.36	1.45873
3909	1.45294
3918.64	1.46504
3928.29	1.46843
3937.93	1.46857
3947.57	1.46948
3957.21	1.46983
3966.86	1.47584
3976.5	1.48157
3986.14	1.48413
3995.78	1.49094
