Measurement: Infrared, Infrared Data Processed
Mineral: Bournonite
Rruff sample: R050111
Ideal chemistry: Cu^1+^Pb^2+^Sb^3+^S^2-^_3_
Locality: Yao Gang Xian mine, Chenzhou, Hunan Province, China
Source: He Xin Jian
Description: Steel-gray short prismatic crystal
Measured chemistry: PbCuSbS_3_
x	intensity
399.193	0.193434
408.835	0.1991
418.477	0.207179
428.12	0.212276
437.762	0.218425
447.404	0.226841
457.047	0.230313
466.689	0.233267
476.331	0.238581
485.974	0.242715
495.616	0.246476
505.258	0.251944
514.901	0.256761
524.543	0.258079
534.185	0.26205
543.828	0.266179
553.47	0.269717
563.112	0.272179
572.755	0.275718
582.397	0.279841
592.039	0.284036
601.682	0.286549
611.324	0.287543
620.966	0.291765
630.609	0.294906
640.251	0.296272
649.893	0.296464
659.536	0.298452
669.178	0.299787
678.82	0.302216
688.463	0.303187
698.105	0.305615
707.747	0.307135
717.39	0.309487
727.032	0.312321
736.674	0.31426
746.317	0.315727
755.959	0.318492
765.601	0.320163
775.244	0.321677
784.886	0.323998
794.528	0.325797
804.171	0.328018
813.813	0.330306
823.455	0.331583
833.098	0.333052
842.74	0.334986
852.382	0.336834
862.025	0.339803
871.667	0.342433
881.309	0.343958
890.952	0.34482
900.594	0.346572
910.236	0.348042
919.879	0.350547
929.521	0.352864
939.163	0.354589
948.806	0.356656
958.448	0.359002
968.09	0.361328
977.733	0.363448
987.375	0.366255
997.017	0.368724
1006.66	0.370576
1016.3	0.372853
1025.94	0.37455
1035.59	0.377629
1045.23	0.379228
1054.87	0.380843
1064.51	0.382489
1074.16	0.384283
1083.8	0.386468
1093.44	0.388474
1103.08	0.390327
1112.72	0.392438
1122.37	0.393828
1132.01	0.396341
1141.65	0.399168
1151.3	0.400893
1160.94	0.401193
1170.58	0.40118
1180.22	0.401389
1189.86	0.402359
1199.51	0.403065
1209.15	0.403023
1218.79	0.403606
1228.43	0.403906
1238.08	0.405139
1247.72	0.406306
1257.36	0.40691
1267	0.408145
1276.64	0.409654
1286.29	0.411099
1295.93	0.412694
1305.57	0.413946
1315.21	0.415598
1324.86	0.41737
1334.5	0.419285
1344.14	0.42061
1353.78	0.422444
1363.43	0.424264
1373.07	0.425729
1382.71	0.428034
1392.35	0.429665
1401.99	0.431997
1411.64	0.43432
1421.28	0.436535
1430.92	0.438205
1440.57	0.439284
1450.21	0.441276
1459.85	0.442417
1469.49	0.44213
1479.13	0.442418
1488.78	0.443313
1498.42	0.444419
1508.06	0.445354
1517.7	0.445922
1527.35	0.447207
1536.99	0.448235
1546.63	0.449385
1556.27	0.450754
1565.91	0.452035
1575.56	0.453592
1585.2	0.454617
1594.84	0.456158
1604.48	0.457664
1614.13	0.459562
1623.77	0.460611
1633.41	0.462357
1643.05	0.462972
1652.7	0.465707
1662.34	0.466278
1671.98	0.467168
1681.62	0.468825
1691.27	0.469852
1700.91	0.472266
1710.55	0.472694
1720.19	0.474432
1729.84	0.475593
1739.48	0.475983
1749.12	0.475825
1758.76	0.476386
1768.4	0.476642
1778.05	0.478071
1787.69	0.478805
1797.33	0.479726
1806.97	0.480241
1816.62	0.480827
1826.26	0.481637
1835.9	0.482596
1845.54	0.482996
1855.18	0.483696
1864.83	0.483853
1874.47	0.484213
1884.11	0.485475
1893.75	0.486835
1903.4	0.48846
1913.04	0.489132
1922.68	0.490959
1932.32	0.491351
1941.97	0.493353
1951.61	0.492997
1961.25	0.49612
1970.89	0.494148
1980.54	0.497527
1990.18	0.496379
1999.82	0.500685
2009.46	0.502319
2019.11	0.499364
2028.75	0.501348
2038.39	0.49973
2048.03	0.501945
2057.67	0.507
2067.32	0.503548
2076.96	0.507291
2086.6	0.508309
2096.24	0.509679
2105.89	0.510596
2115.53	0.5118
2125.17	0.514289
2134.81	0.514438
2144.45	0.516209
2154.1	0.520589
2163.74	0.514401
2173.38	0.515864
2183.02	0.519884
2192.67	0.518315
2202.31	0.523122
2211.95	0.522781
2221.59	0.523066
2231.24	0.524741
2240.88	0.527872
2250.52	0.528117
2260.16	0.529421
2269.8	0.530483
2279.45	0.531861
2289.09	0.532543
2298.73	0.533071
2308.38	0.533938
2318.02	0.535323
2327.66	0.537323
2337.3	0.538934
2346.94	0.540267
2356.59	0.540492
2366.23	0.542753
2375.87	0.542018
2385.51	0.543713
2395.16	0.54477
2404.8	0.543103
2414.44	0.54546
2424.08	0.545481
2433.72	0.546485
2443.37	0.5466
2453.01	0.549283
2462.65	0.550163
2472.29	0.551111
2481.94	0.551735
2491.58	0.552639
2501.22	0.554098
2510.86	0.554974
2520.51	0.556207
2530.15	0.556856
2539.79	0.557205
2549.43	0.558976
2559.07	0.560134
2568.72	0.56202
2578.36	0.562975
2588	0.564524
2597.64	0.566214
2607.29	0.566738
2616.93	0.568766
2626.57	0.570932
2636.21	0.57233
2645.86	0.573288
2655.5	0.57521
2665.14	0.5765
2674.78	0.577744
2684.43	0.578749
2694.07	0.579692
2703.71	0.580486
2713.35	0.582106
2722.99	0.583492
2732.64	0.583571
2742.28	0.585172
2751.92	0.586091
2761.56	0.586995
2771.21	0.588691
2780.85	0.589503
2790.49	0.590321
2800.13	0.591702
2809.78	0.592981
2819.42	0.595492
2829.06	0.596173
2838.7	0.598635
2848.34	0.600507
2857.99	0.601515
2867.63	0.60194
2877.27	0.602303
2886.91	0.603748
2896.56	0.604377
2906.2	0.606843
2915.84	0.610002
2925.48	0.610502
2935.13	0.610176
2944.77	0.609134
2954.41	0.610743
2964.05	0.608989
2973.7	0.609331
2983.34	0.608791
2992.98	0.61023
3002.62	0.610983
3012.26	0.61288
3021.91	0.614309
3031.55	0.614601
3041.19	0.616057
3050.83	0.617435
3060.48	0.617891
3070.12	0.61905
3079.76	0.619971
3089.4	0.621607
3099.05	0.62233
3108.69	0.624229
3118.33	0.624611
3127.97	0.626236
3137.61	0.628604
3147.26	0.629464
3156.9	0.63056
3166.54	0.63209
3176.18	0.633086
3185.83	0.632867
3195.47	0.635019
3205.11	0.635613
3214.75	0.638064
3224.4	0.638264
3234.04	0.639233
3243.68	0.640922
3253.32	0.641497
3262.97	0.642355
3272.61	0.643078
3282.25	0.645764
3291.89	0.645627
3301.53	0.646374
3311.18	0.647995
3320.82	0.648604
3330.46	0.650677
3340.1	0.652637
3349.75	0.652216
3359.39	0.653989
3369.03	0.654284
3378.67	0.656186
3388.32	0.656887
3397.96	0.658226
3407.6	0.6609
3417.24	0.662215
3426.89	0.660309
3436.53	0.663843
3446.17	0.665372
3455.81	0.664546
3465.45	0.664995
3475.1	0.666899
3484.74	0.668992
3494.38	0.670336
3504.02	0.669043
3513.67	0.670524
3523.31	0.672117
3532.95	0.672807
3542.59	0.67337
3552.24	0.674814
3561.88	0.675602
3571.52	0.674954
3581.16	0.679277
3590.8	0.678083
3600.45	0.68153
3610.09	0.683473
3619.73	0.683236
3629.37	0.686782
3639.02	0.685398
3648.66	0.687874
3658.3	0.690152
3667.94	0.691362
3677.59	0.691001
3687.23	0.693921
3696.87	0.69356
3706.51	0.695288
3716.16	0.697755
3725.8	0.699586
3735.44	0.703454
3745.08	0.704569
3754.72	0.704674
3764.37	0.703481
3774.01	0.705845
3783.65	0.705359
3793.29	0.70843
3802.94	0.7088
3812.58	0.709283
3822.22	0.713783
3831.86	0.714043
3841.51	0.71464
3851.15	0.716846
3860.79	0.717176
3870.43	0.718926
3880.07	0.717041
3889.72	0.720556
3899.36	0.723094
3909	0.724128
3918.64	0.725656
3928.29	0.728693
3937.93	0.72763
3947.57	0.728476
3957.21	0.732126
3966.86	0.731146
3976.5	0.735469
3986.14	0.735434
3995.78	0.739464
