Measurement: Infrared, Infrared Data Processed
Mineral: Brucite
Rruff sample: R040077
Ideal chemistry: Mg(OH)_2_
Locality: Gabbs, Nye County, Nevada, USA
Source: University of Arizona Mineral Museum
Description: White fine-grained massive
Measured chemistry: Mg_1.00_(OH)_2_
x	intensity
399.193	0
408.835	0.304123
418.477	0.297164
428.12	0.276941
437.762	0.256873
447.404	0.239034
457.047	0.21704
466.689	0.201746
476.331	0.187346
485.974	0.175008
495.616	0.16363
505.258	0.15147
514.901	0.141781
524.543	0.132547
534.185	0.122137
543.828	0.112094
553.47	0.104233
563.112	0.096779
572.755	0.0898762
582.397	0.0868083
592.039	0.0848177
601.682	0.083307
611.324	0.0828403
620.966	0.0824605
630.609	0.0828214
640.251	0.081268
649.893	0.0751287
659.536	0.0699586
669.178	0.0659111
678.82	0.06318
688.463	0.059235
698.105	0.0535249
707.747	0.0493417
717.39	0.0442935
727.032	0.0379355
736.674	0.0329469
746.317	0.0292145
755.959	0.0254533
765.601	0.0226868
775.244	0.0204963
784.886	0.0192752
794.528	0.0178145
804.171	0.0168002
813.813	0.0158077
823.455	0.0146335
833.098	0.0134278
842.74	0.0125788
852.382	0.0123619
862.025	0.0129657
871.667	0.0154388
881.309	0.0138102
890.952	0.00976708
900.594	0.00962061
910.236	0.00996694
919.879	0.0110184
929.521	0.0126927
939.163	0.0146911
948.806	0.0166983
958.448	0.0177689
968.09	0.0179746
977.733	0.0166131
987.375	0.0156378
997.017	0.0148762
1006.66	0.0146101
1016.3	0.0140311
1025.94	0.0130066
1035.59	0.0117442
1045.23	0.0120121
1054.87	0.0124491
1064.51	0.0123303
1074.16	0.0128512
1083.8	0.012797
1093.44	0.0116218
1103.08	0.010028
1112.72	0.0087188
1122.37	0.00817223
1132.01	0.00860514
1141.65	0.00875001
1151.3	0.00913451
1160.94	0.00954998
1170.58	0.00940605
1180.22	0.0103835
1189.86	0.0107735
1199.51	0.0110955
1209.15	0.0115646
1218.79	0.0118883
1228.43	0.0116058
1238.08	0.0113618
1247.72	0.010892
1257.36	0.0110238
1267	0.0111388
1276.64	0.0112905
1286.29	0.0115521
1295.93	0.0122848
1305.57	0.0127863
1315.21	0.0130113
1324.86	0.0132675
1334.5	0.0143086
1344.14	0.0152354
1353.78	0.0168693
1363.43	0.0187046
1373.07	0.0215271
1382.71	0.0244787
1392.35	0.0276839
1401.99	0.0306217
1411.64	0.0333786
1421.28	0.0345363
1430.92	0.035104
1440.57	0.0344877
1450.21	0.0330299
1459.85	0.0309816
1469.49	0.0291869
1479.13	0.0273148
1488.78	0.0254367
1498.42	0.0239651
1508.06	0.0220901
1517.7	0.0206028
1527.35	0.018697
1536.99	0.0171759
1546.63	0.0158735
1556.27	0.0147485
1565.91	0.0140453
1575.56	0.0131741
1585.2	0.0128014
1594.84	0.0120252
1604.48	0.0118867
1614.13	0.0115009
1623.77	0.0114708
1633.41	0.0109916
1643.05	0.0105172
1652.7	0.00913748
1662.34	0.0083805
1671.98	0.0070714
1681.62	0.0066302
1691.27	0.0054609
1700.91	0.00559737
1710.55	0.00513047
1720.19	0.00471513
1729.84	0.00422538
1739.48	0.00388032
1749.12	0.0033567
1758.76	0.00409615
1768.4	0.00443614
1778.05	0.00423216
1787.69	0.00415219
1797.33	0.0042911
1806.97	0.00370016
1816.62	0.00352984
1826.26	0.00348487
1835.9	0.0040358
1845.54	0.00405477
1855.18	0.00390989
1864.83	0.00343816
1874.47	0.00386389
1884.11	0.00445426
1893.75	0.00375509
1903.4	0.00404604
1913.04	0.00491562
1922.68	0.00528343
1932.32	0.00398415
1941.97	0.00300999
1951.61	0.00501596
1961.25	0.00399524
1970.89	0.00478897
1980.54	0.00744164
1990.18	0.0053453
1999.82	0.00477698
2009.46	0.00715572
2019.11	0.0046576
2028.75	0.00459022
2038.39	0.00689776
2048.03	0.00584839
2057.67	0.00531798
2067.32	0.00646071
2076.96	0.00382222
2086.6	0.00571071
2096.24	0.00558457
2105.89	0.00406825
2115.53	0.00497176
2125.17	0.00425676
2134.81	0.00329525
2144.45	0.00490494
2154.1	0.00349739
2163.74	0.00766408
2173.38	0.0052694
2183.02	0.00700459
2192.67	0.00729493
2202.31	0.00658392
2211.95	0.00466354
2221.59	0.00888875
2231.24	0.00658554
2240.88	0.00423273
2250.52	0.00613278
2260.16	0.0074415
2269.8	0.00648786
2279.45	0.0065216
2289.09	0.00679879
2298.73	0.00539328
2308.38	0.00586844
2318.02	0.0068706
2327.66	0.00580228
2337.3	0.00472775
2346.94	0.00474925
2356.59	0.00484245
2366.23	0.00424575
2375.87	0.00431696
2385.51	0.00444236
2395.16	0.00475663
2404.8	0.00490054
2414.44	0.00443364
2424.08	0.00523681
2433.72	0.00546305
2443.37	0.00613855
2453.01	0.00522847
2462.65	0.00545817
2472.29	0.00595368
2481.94	0.0060769
2491.58	0.00520922
2501.22	0.0059139
2510.86	0.00655081
2520.51	0.0061957
2530.15	0.00609178
2539.79	0.00578791
2549.43	0.00715023
2559.07	0.00703938
2568.72	0.00619285
2578.36	0.0063529
2588	0.00704472
2597.64	0.00822127
2607.29	0.00626933
2616.93	0.00643937
2626.57	0.00688139
2636.21	0.00743908
2645.86	0.006827
2655.5	0.00721318
2665.14	0.00530807
2674.78	0.00557155
2684.43	0.00530667
2694.07	0.00548789
2703.71	0.00613804
2713.35	0.00628088
2722.99	0.00590037
2732.64	0.00670612
2742.28	0.00675493
2751.92	0.00595926
2761.56	0.00634861
2771.21	0.00657519
2780.85	0.0069463
2790.49	0.00687109
2800.13	0.00726954
2809.78	0.00715898
2819.42	0.00646172
2829.06	0.00665149
2838.7	0.00591001
2848.34	0.00650217
2857.99	0.00698037
2867.63	0.00646476
2877.27	0.00702358
2886.91	0.00760635
2896.56	0.00684216
2906.2	0.00658604
2915.84	0.00559031
2925.48	0.00597534
2935.13	0.0069791
2944.77	0.00864369
2954.41	0.00832819
2964.05	0.0106441
2973.7	0.00991334
2983.34	0.0100078
2992.98	0.0104469
3002.62	0.0107394
3012.26	0.0105675
3021.91	0.0104867
3031.55	0.011078
3041.19	0.0113176
3050.83	0.0112263
3060.48	0.0115098
3070.12	0.0114243
3079.76	0.012187
3089.4	0.0115648
3099.05	0.0133432
3108.69	0.0123992
3118.33	0.0128596
3127.97	0.0130349
3137.61	0.0140753
3147.26	0.0136831
3156.9	0.0130684
3166.54	0.0135126
3176.18	0.0155129
3185.83	0.014308
3195.47	0.0162811
3205.11	0.0152923
3214.75	0.0166262
3224.4	0.0173428
3234.04	0.0156683
3243.68	0.0173563
3253.32	0.0200195
3262.97	0.0186414
3272.61	0.0181524
3282.25	0.0189021
3291.89	0.0181423
3301.53	0.0173254
3311.18	0.0178783
3320.82	0.0178254
3330.46	0.0165229
3340.1	0.0180561
3349.75	0.0181072
3359.39	0.0160424
3369.03	0.0185771
3378.67	0.0170097
3388.32	0.0180883
3397.96	0.0179471
3407.6	0.0174335
3417.24	0.019866
3426.89	0.0188746
3436.53	0.0184147
3446.17	0.0192811
3455.81	0.0205462
3465.45	0.0203657
3475.1	0.0217116
3484.74	0.0215719
3494.38	0.0209502
3504.02	0.0214947
3513.67	0.0211173
3523.31	0.0240799
3532.95	0.0242434
3542.59	0.0251467
3552.24	0.0272745
3561.88	0.0280049
3571.52	0.0302729
3581.16	0.0320872
3590.8	0.0298876
3600.45	0.0348653
3610.09	0.0323593
3619.73	0.0370782
3629.37	0.0432546
3639.02	0.0528981
3648.66	0.0707956
3658.3	0.0927768
3667.94	0.170203
3677.59	0.35417
3687.23	0.552566
3696.87	0.437956
3706.51	0.0531309
3716.16	0.0207931
3725.8	0.0104906
3735.44	0.00935057
3745.08	0.0125265
3754.72	0.00848742
3764.37	0.00963875
3774.01	0.00913715
3783.65	0.0085817
3793.29	0.00977962
3802.94	0.0119415
3812.58	0.00904505
3822.22	0.0091197
3831.86	0.00942127
3841.51	0.0105518
3851.15	0.0104945
3860.79	0.0112719
3870.43	0.0126829
3880.07	0.0087386
3889.72	0.0115451
3899.36	0.010237
3909	0.00853577
3918.64	0.0124803
3928.29	0.0112466
3937.93	0.0133142
3947.57	0.0132218
3957.21	0.0138367
3966.86	0.0128165
3976.5	0.0138015
3986.14	0.0166027
3995.78	0.0132285
