Measurement: Infrared, Infrared Data Processed
Mineral: Calcite
Rruff sample: R050128
Ideal chemistry: CaCO_3_
Locality: Tie Siding, Albany County, Wyoming, USA
Source: Dave Bunk Minerals
Description: Pseudomorph after aragonite, not single crystal. Trace of aragonite still present.
Measured chemistry: Ca_1.00_CO_3_
x	intensity
374.123	0.0496539
383.765	0.0299612
393.407	0.0284205
403.05	0.0248686
412.692	0.0191478
422.334	0.016217
431.976	0.014503
441.619	0.0130238
451.261	0.012301
460.904	0.0119315
470.546	0.00982223
480.188	0.0111223
489.83	0.0100322
499.473	0.00931401
509.115	0.00795812
518.758	0.00697685
528.4	0.00669327
538.042	0.00645972
547.684	0.00586876
557.327	0.00489373
566.969	0.00494023
576.611	0.00603435
586.254	0.0062324
595.896	0.00583889
605.538	0.00581507
615.181	0.00557174
624.823	0.00541194
634.466	0.00531203
644.108	0.00545397
653.75	0.00601088
663.393	0.00582217
673.035	0.00603715
682.677	0.00706701
692.319	0.0083461
701.962	0.0146794
711.604	0.11022
721.246	0.0100815
730.889	0.00596333
740.531	0.00598313
750.173	0.0059453
759.816	0.00659488
769.458	0.0070986
779.101	0.00775661
788.743	0.00804412
798.385	0.0084895
808.028	0.00860973
817.67	0.00969635
827.312	0.0114306
836.955	0.0150891
846.597	0.0365722
856.239	0.0530106
865.881	0.15838
875.524	0.268618
885.166	0.0611994
894.808	0.0119107
904.451	0.0111699
914.093	0.011054
923.736	0.0117801
933.378	0.0123575
943.02	0.0128921
952.663	0.0129755
962.305	0.0133017
971.947	0.0137093
981.59	0.0142831
991.232	0.0149901
1000.87	0.0159677
1010.52	0.016796
1020.16	0.017298
1029.8	0.0179471
1039.44	0.0183581
1049.09	0.0195733
1058.73	0.0205177
1068.37	0.0217778
1078.01	0.0235776
1087.65	0.0267037
1097.3	0.0253892
1106.94	0.0266293
1116.58	0.0283719
1126.22	0.0305819
1135.87	0.0332552
1145.51	0.0363798
1155.15	0.0400824
1164.79	0.0438463
1174.44	0.0465107
1184.08	0.0486542
1193.72	0.0513345
1203.36	0.0548817
1213.01	0.0596435
1222.65	0.0653206
1232.29	0.0721685
1241.93	0.07997
1251.58	0.0886619
1261.22	0.0997613
1270.86	0.111678
1280.5	0.126903
1290.14	0.143647
1299.79	0.164936
1309.43	0.190302
1319.07	0.217791
1328.71	0.250485
1338.36	0.29127
1348	0.340196
1357.64	0.39983
1367.28	0.471628
1376.92	0.549853
1386.57	0.633921
1396.21	0.680281
1405.85	0.674674
1415.49	0.611136
1425.14	0.545303
1434.78	0.486771
1444.42	0.432743
1454.06	0.379821
1463.71	0.332852
1473.35	0.29093
1482.99	0.251671
1492.63	0.214167
1502.28	0.178396
1511.92	0.145035
1521.56	0.114975
1531.2	0.0867132
1540.85	0.0590879
1550.49	0.0324699
1560.13	0.022025
1569.77	0.0159375
1579.41	0.0141116
1589.06	0.0114976
1598.7	0.0075807
1608.34	0.00540623
1617.98	0.0041125
1627.63	0.00293268
1637.27	0.00222662
1646.91	0.00192527
1656.55	0.00106122
1666.19	0.000662962
1675.84	0.000571878
1685.48	0.000511065
1695.12	0.00037051
1704.77	-0.000252222
1714.41	-0.000365963
1724.05	-0.000599455
1733.69	-0.000756619
1743.33	-0.00203972
1752.98	-0.00200402
1762.62	-0.00138301
1772.26	-0.000644851
1781.9	0.00112266
1791.55	0.0157295
1801.19	0.0100527
1810.83	-0.000471579
1820.47	-0.00165952
1830.12	-0.0021525
1839.76	-0.00223138
1849.4	-0.00257109
1859.04	-0.00279937
1868.68	-0.00193501
1878.33	-0.00194332
1887.97	-0.00237768
1897.61	-0.0020233
1907.25	-0.00209366
1916.9	-0.00166527
1926.54	-0.00196996
1936.18	-0.000903309
1945.82	-0.000929833
1955.46	-0.000433222
1965.11	-0.000810389
1974.75	-0.000139423
1984.39	0.000632888
1994.04	-0.000730893
2003.68	-0.00126752
2013.32	0.000879138
2022.96	0.000656592
2032.6	-2.63328e-05
2042.25	0.000310582
2051.89	-0.000844954
2061.53	-0.0017704
2071.17	-0.00219446
2080.82	-0.00077393
2090.46	-0.00210592
2100.1	-0.00145143
2109.74	-0.00197169
2119.39	-0.00165018
2129.03	-0.00317267
2138.67	-0.00311041
2148.31	-0.00152526
2157.95	-0.000134271
2167.6	0.000827025
2177.24	0.000508873
2186.88	0.00143979
2196.52	0.000438671
2206.17	0.000422241
2215.81	0.00052494
2225.45	0.000966453
2235.09	0.00127315
2244.74	-0.000173358
2254.38	-0.000242361
2264.02	-0.000559311
2273.66	0.0001922
2283.3	0.000482343
2292.95	-0.000105903
2302.59	-0.00100368
2312.23	-0.000327316
2321.87	0.000905909
2331.52	0.000135355
2341.16	0.000565735
2350.8	-0.000604415
2360.44	0.00141895
2370.09	5.31665e-05
2379.73	-0.00122019
2389.37	-0.00195546
2399.01	-0.001376
2408.66	-0.00105246
2418.3	-0.00118122
2427.94	-0.00056057
2437.58	-0.000688556
2447.22	0.000688809
2456.87	0.000845817
2466.51	0.000903365
2476.15	0.00157683
2485.79	0.00402854
2495.44	0.00691321
2505.08	0.012305
2514.72	0.0138305
2524.36	0.0102162
2534.01	0.00576115
2543.65	0.00308952
2553.29	0.0030091
2562.93	0.00252559
2572.57	0.00138063
2582.22	0.000876127
2591.86	0.00125745
2601.5	0.00118904
2611.14	-0.000258572
2620.79	-0.000633562
2630.43	-0.00138225
2640.07	-0.00179841
2649.71	-0.00236051
2659.36	-0.00261898
2669	-0.0030065
2678.64	-0.00348016
2688.28	-0.00387149
2697.93	-0.00367
2707.57	-0.00443411
2717.21	-0.00397721
2726.85	-0.00374961
2736.49	-0.00504112
2746.14	-0.00483589
2755.78	-0.00447195
2765.42	-0.00418366
2775.06	-0.00465997
2784.71	-0.00520068
2794.35	-0.00443685
2803.99	-0.0049547
2813.63	-0.0044814
2823.28	-0.00353535
2832.92	-0.00319845
2842.56	-0.00184682
2852.2	-0.000678454
2861.84	0.000405536
2871.49	0.00131206
2881.13	0.000234003
2890.77	-0.000996513
2900.41	-0.000923878
2910.06	-0.00142788
2919.7	-0.0012344
2929.34	-0.000243794
2938.98	-0.00136445
2948.62	-0.00179242
2958.27	-0.000284813
2967.91	-0.000196073
2977.55	-0.000494085
2987.2	-0.000383977
2996.84	-0.00204005
3006.48	-0.00251171
3016.12	-0.00101895
3025.76	-0.0019191
3035.41	-0.00198758
3045.05	-0.0011996
3054.69	-0.000694755
3064.33	-0.000914606
3073.98	0.00021177
3083.62	0.000140801
3093.26	0.000430331
3102.9	-0.000227606
3112.55	0.000128198
3122.19	0.00165477
3131.83	0.00130502
3141.47	0.00100421
3151.11	0.00246345
3160.76	0.00102243
3170.4	0.00181979
3180.04	0.00170031
3189.68	0.00146951
3199.33	0.00273161
3208.97	0.00129821
3218.61	0.00191624
3228.25	0.0023296
3237.9	0.00216022
3247.54	0.00200577
3257.18	0.00109671
3266.82	0.00218895
3276.47	0.00132486
3286.11	0.00169783
3295.75	0.00075937
3305.39	0.000688505
3315.03	0.00145909
3324.68	0.00134259
3334.32	0.00179663
3343.96	0.000818481
3353.6	0.00166962
3363.25	0.00130809
3372.89	0.000866488
3382.53	0.0013461
3392.17	0.000970075
3401.82	0.00154524
3411.46	0.0012292
3421.1	0.00143157
3430.74	0.00145517
3440.39	0.000991163
3450.03	0.0016096
3459.67	0.00168421
3469.31	-0.000130005
3478.95	0.00125052
3488.6	0.000703421
3498.24	-0.000907658
3507.88	0.000864301
3517.52	-0.000339355
3527.17	0.000750601
3536.81	0.00054901
3546.45	0.000557913
3556.09	0.000837275
3565.74	0.000422552
3575.38	-0.00014239
3585.02	0.00131124
3594.66	-0.000156497
3604.3	-0.000658372
3613.95	0.00123409
3623.59	0.000440697
3633.23	0.000688263
3642.87	-0.000399236
3652.52	0.00135422
3662.16	0.000619693
3671.8	-0.000614273
3681.44	-0.000528213
3691.09	0.000858291
3700.73	0.000983837
3710.37	0.00124069
3720.01	0.000243208
3729.66	0.000280177
3739.3	0.000765498
3748.94	0.00199939
3758.58	0.000422609
3768.22	-0.000300377
3777.87	0.00038446
3787.51	-0.000784787
3797.15	-0.000222552
3806.79	0.000123238
3816.44	0.00123085
3826.08	-0.000521464
3835.72	0.000842458
3845.36	-0.000883881
3855.01	0.00150037
3864.65	0.00166601
3874.29	0.000156235
3883.93	2.9213e-05
3893.57	-0.00112343
3903.22	-0.00048233
3912.86	6.71594e-05
3922.5	-0.00196347
3932.14	0.000289263
3941.79	0.0011428
3951.43	0.00115857
3961.07	-0.000413114
3970.71	2.855e-05
3980.36	-5.71054e-05
3990	-0.000762521
3999.64	-0.00053876
