Measurement: Infrared, Infrared Data Processed
Mineral: Calcite
Rruff sample: R040070
Ideal chemistry: CaCO_3_
Locality: Pryor Mountain, Big Horn County, Montana, USA
Source: University of Arizona Mineral Museum
Description: Orange scalenohedral crystals
Measured chemistry: (Ca_0.99_Mg_0.01_)CO_3_
x	intensity
399.193	0
408.835	0.0211579
418.477	0.0178609
428.12	0.0158627
437.762	0.0134803
447.404	0.0117707
457.047	0.0107164
466.689	0.00944022
476.331	0.00888075
485.974	0.00924304
495.616	0.00832506
505.258	0.00826019
514.901	0.00733136
524.543	0.00722408
534.185	0.00626739
543.828	0.00689126
553.47	0.00557009
563.112	0.00584855
572.755	0.00607807
582.397	0.00656395
592.039	0.0065478
601.682	0.00652366
611.324	0.00649575
620.966	0.00637795
630.609	0.00672959
640.251	0.00720538
649.893	0.00727254
659.536	0.0077643
669.178	0.00791565
678.82	0.0111381
688.463	0.0103482
698.105	0.0134024
707.747	0.0367339
717.39	0.0245302
727.032	0.00883915
736.674	0.00919889
746.317	0.00890357
755.959	0.00975023
765.601	0.010499
775.244	0.0118661
784.886	0.0119134
794.528	0.0126892
804.171	0.0131129
813.813	0.0144563
823.455	0.0159512
833.098	0.0192091
842.74	0.027857
852.382	0.0369951
862.025	0.0865429
871.667	0.201888
881.309	0.10532
890.952	0.0142477
900.594	0.0129903
910.236	0.0140061
919.879	0.0149542
929.521	0.0159173
939.163	0.0168185
948.806	0.0178226
958.448	0.0181701
968.09	0.0191684
977.733	0.0202132
987.375	0.02125
997.017	0.0222932
1006.66	0.0234725
1016.3	0.0244029
1025.94	0.0254489
1035.59	0.0261098
1045.23	0.0275019
1054.87	0.0289653
1064.51	0.0304521
1074.16	0.0324612
1083.8	0.0358879
1093.44	0.0362529
1103.08	0.036072
1112.72	0.0380224
1122.37	0.0406518
1132.01	0.0429213
1141.65	0.0462229
1151.3	0.0498095
1160.94	0.0533666
1170.58	0.0558451
1180.22	0.0591813
1189.86	0.0620549
1199.51	0.0657369
1209.15	0.0699504
1218.79	0.0750149
1228.43	0.0805784
1238.08	0.0873374
1247.72	0.0936243
1257.36	0.101475
1267	0.110205
1276.64	0.120303
1286.29	0.131297
1295.93	0.14427
1305.57	0.159608
1315.21	0.175853
1324.86	0.193952
1334.5	0.215806
1344.14	0.240721
1353.78	0.27068
1363.43	0.305316
1373.07	0.343078
1382.71	0.381784
1392.35	0.412323
1401.99	0.408148
1411.64	0.388206
1421.28	0.353378
1430.92	0.322964
1440.57	0.294261
1450.21	0.26512
1459.85	0.236334
1469.49	0.210113
1479.13	0.186005
1488.78	0.163462
1498.42	0.140881
1508.06	0.119529
1517.7	0.100052
1527.35	0.0822123
1536.99	0.0631194
1546.63	0.0418204
1556.27	0.0265783
1565.91	0.0207982
1575.56	0.0170822
1585.2	0.0155757
1594.84	0.01236
1604.48	0.00997864
1614.13	0.00832803
1623.77	0.00697513
1633.41	0.00627422
1643.05	0.00612794
1652.7	0.00523077
1662.34	0.0053244
1671.98	0.00500827
1681.62	0.00470064
1691.27	0.00433631
1700.91	0.00464491
1710.55	0.00525279
1720.19	0.00472423
1729.84	0.00451736
1739.48	0.00473484
1749.12	0.0044905
1758.76	0.00463729
1768.4	0.00496718
1778.05	0.00570432
1787.69	0.010006
1797.33	0.017214
1806.97	0.00718083
1816.62	0.00425552
1826.26	0.00437605
1835.9	0.0044094
1845.54	0.00393043
1855.18	0.00480449
1864.83	0.00388261
1874.47	0.00461363
1884.11	0.00436684
1893.75	0.00424217
1903.4	0.00402971
1913.04	0.00457824
1922.68	0.00441792
1932.32	0.00448517
1941.97	0.00527343
1951.61	0.00630835
1961.25	0.00433484
1970.89	0.00518852
1980.54	0.00695406
1990.18	0.00690464
1999.82	0.00468354
2009.46	0.00535618
2019.11	0.00403212
2028.75	0.0060823
2038.39	0.00615358
2048.03	0.00641741
2057.67	0.00603905
2067.32	0.00547844
2076.96	0.00581221
2086.6	0.00617422
2096.24	0.00547152
2105.89	0.00629708
2115.53	0.00684743
2125.17	0.00580649
2134.81	0.00311357
2144.45	0.0065392
2154.1	0.00411992
2163.74	0.00889866
2173.38	0.00614531
2183.02	0.0066679
2192.67	0.00514794
2202.31	0.0077889
2211.95	0.00559022
2221.59	0.00798424
2231.24	0.00710108
2240.88	0.00705278
2250.52	0.00646026
2260.16	0.00741911
2269.8	0.00814307
2279.45	0.00841387
2289.09	0.00896397
2298.73	0.00887897
2308.38	0.00979501
2318.02	0.00986596
2327.66	0.00919077
2337.3	0.00939604
2346.94	0.00860162
2356.59	0.00833514
2366.23	0.00810139
2375.87	0.00843102
2385.51	0.00824199
2395.16	0.00756926
2404.8	0.00801525
2414.44	0.00859684
2424.08	0.00819921
2433.72	0.00857794
2443.37	0.00905302
2453.01	0.00956631
2462.65	0.00923132
2472.29	0.00872065
2481.94	0.010671
2491.58	0.0128451
2501.22	0.0152281
2510.86	0.016755
2520.51	0.0163992
2530.15	0.0138551
2539.79	0.0100872
2549.43	0.0101536
2559.07	0.00942076
2568.72	0.0103803
2578.36	0.0101356
2588	0.00957028
2597.64	0.00912106
2607.29	0.00953773
2616.93	0.0094224
2626.57	0.0084376
2636.21	0.00822659
2645.86	0.00876803
2655.5	0.0088578
2665.14	0.00790617
2674.78	0.00767857
2684.43	0.00812245
2694.07	0.00730652
2703.71	0.00772419
2713.35	0.0073902
2722.99	0.00866522
2732.64	0.0072569
2742.28	0.00759357
2751.92	0.00761627
2761.56	0.00716199
2771.21	0.00733287
2780.85	0.00710455
2790.49	0.00619541
2800.13	0.00710518
2809.78	0.00740475
2819.42	0.00776139
2829.06	0.0086641
2838.7	0.00914922
2848.34	0.0112911
2857.99	0.0122676
2867.63	0.0113037
2877.27	0.0122685
2886.91	0.0104558
2896.56	0.0114534
2906.2	0.0113712
2915.84	0.0109017
2925.48	0.0128138
2935.13	0.0130615
2944.77	0.0120068
2954.41	0.0121968
2964.05	0.0122992
2973.7	0.012695
2983.34	0.0124862
2992.98	0.0113271
3002.62	0.0112351
3012.26	0.0124452
3021.91	0.0107653
3031.55	0.0131621
3041.19	0.0111913
3050.83	0.0118536
3060.48	0.0120402
3070.12	0.0128539
3079.76	0.0119131
3089.4	0.0135982
3099.05	0.0141245
3108.69	0.0141957
3118.33	0.0148263
3127.97	0.0153796
3137.61	0.0160591
3147.26	0.015507
3156.9	0.0150626
3166.54	0.016148
3176.18	0.0158743
3185.83	0.0166763
3195.47	0.0165664
3205.11	0.0152338
3214.75	0.0159402
3224.4	0.0161341
3234.04	0.0156929
3243.68	0.0166753
3253.32	0.0162469
3262.97	0.0170712
3272.61	0.0162509
3282.25	0.017862
3291.89	0.0174445
3301.53	0.0173954
3311.18	0.0162148
3320.82	0.0184661
3330.46	0.0173289
3340.1	0.0168076
3349.75	0.0162587
3359.39	0.0165262
3369.03	0.0183916
3378.67	0.01794
3388.32	0.0171477
3397.96	0.0195123
3407.6	0.0154168
3417.24	0.0159245
3426.89	0.017384
3436.53	0.0189722
3446.17	0.0178237
3455.81	0.0179285
3465.45	0.0187227
3475.1	0.0186157
3484.74	0.018229
3494.38	0.0166549
3504.02	0.0174335
3513.67	0.0181191
3523.31	0.01517
3532.95	0.0166558
3542.59	0.0173493
3552.24	0.0172117
3561.88	0.0183397
3571.52	0.0193143
3581.16	0.0172185
3590.8	0.0183331
3600.45	0.0162848
3610.09	0.0167353
3619.73	0.0157034
3629.37	0.0186912
3639.02	0.0174253
3648.66	0.0170558
3658.3	0.0192441
3667.94	0.0188456
3677.59	0.0194462
3687.23	0.0190109
3696.87	0.0184654
3706.51	0.0167296
3716.16	0.0178225
3725.8	0.0159956
3735.44	0.0195134
3745.08	0.0173549
3754.72	0.0204581
3764.37	0.0176836
3774.01	0.0184333
3783.65	0.0213423
3793.29	0.0195611
3802.94	0.0201546
3812.58	0.0214788
3822.22	0.0207479
3831.86	0.0195603
3841.51	0.0215591
3851.15	0.0226695
3860.79	0.0206479
3870.43	0.0192637
3880.07	0.019461
3889.72	0.0196439
3899.36	0.0224996
3909	0.0190734
3918.64	0.0215064
3928.29	0.020951
3937.93	0.0203257
3947.57	0.0203762
3957.21	0.0221883
3966.86	0.0219934
3976.5	0.0218283
3986.14	0.0215318
3995.78	0.0196115
