Measurement: Infrared, Infrared Data Processed
Mineral: Calcite
Rruff sample: R050130
Ideal chemistry: CaCO_3_
Locality: Mexico
Source: Dave Bunk Minerals
Description: Colorless cleavage rhomb
Measured chemistry: Ca_1.00_CO_3_; trace amounts of Si (?)
x	intensity
374.123	0.0432258
383.765	0.0276879
393.407	0.0291969
403.05	0.0219246
412.692	0.0179648
422.334	0.0150953
431.976	0.0145209
441.619	0.0118449
451.261	0.0126433
460.904	0.0113143
470.546	0.0101972
480.188	0.0100473
489.83	0.00928976
499.473	0.00870835
509.115	0.00719685
518.758	0.00713617
528.4	0.00652657
538.042	0.00608237
547.684	0.00569917
557.327	0.00461265
566.969	0.0050302
576.611	0.005645
586.254	0.00574938
595.896	0.0054782
605.538	0.00526537
615.181	0.00543938
624.823	0.00528124
634.466	0.00498207
644.108	0.00504827
653.75	0.00538451
663.393	0.00525197
673.035	0.00578833
682.677	0.006685
692.319	0.00795684
701.962	0.0130595
711.604	0.106056
721.246	0.00950568
730.889	0.00583435
740.531	0.00574424
750.173	0.00561808
759.816	0.00652063
769.458	0.00720696
779.101	0.00769805
788.743	0.00769907
798.385	0.00822815
808.028	0.00850901
817.67	0.00985405
827.312	0.0108092
836.955	0.0138394
846.597	0.0323976
856.239	0.0389954
865.881	0.15189
875.524	0.249412
885.166	0.0594847
894.808	0.0112787
904.451	0.0108158
914.093	0.011066
923.736	0.0114501
933.378	0.0123001
943.02	0.0128749
952.663	0.013007
962.305	0.013399
971.947	0.0140591
981.59	0.0147726
991.232	0.0156187
1000.87	0.0163016
1010.52	0.0174279
1020.16	0.0182875
1029.8	0.0185816
1039.44	0.0193674
1049.09	0.0206094
1058.73	0.0213551
1068.37	0.0228688
1078.01	0.0245022
1087.65	0.0272806
1097.3	0.026463
1106.94	0.0274508
1116.58	0.0293559
1126.22	0.0313372
1135.87	0.0338965
1145.51	0.0368048
1155.15	0.0404262
1164.79	0.0446499
1174.44	0.047349
1184.08	0.0499119
1193.72	0.0528265
1203.36	0.0565006
1213.01	0.0611911
1222.65	0.0670707
1232.29	0.0738281
1241.93	0.0814903
1251.58	0.09
1261.22	0.100746
1270.86	0.112264
1280.5	0.126671
1290.14	0.142388
1299.79	0.162316
1309.43	0.186141
1319.07	0.211897
1328.71	0.242654
1338.36	0.28077
1348	0.326443
1357.64	0.381769
1367.28	0.447765
1376.92	0.517502
1386.57	0.588459
1396.21	0.62321
1405.85	0.611741
1415.49	0.550355
1425.14	0.490818
1434.78	0.43865
1444.42	0.389632
1454.06	0.342512
1463.71	0.301056
1473.35	0.26423
1482.99	0.230365
1492.63	0.1973
1502.28	0.165483
1511.92	0.135674
1521.56	0.108268
1531.2	0.0818849
1540.85	0.0561414
1550.49	0.0307563
1560.13	0.0210553
1569.77	0.0155657
1579.41	0.0139948
1589.06	0.0118901
1598.7	0.00810727
1608.34	0.0057072
1617.98	0.00437317
1627.63	0.00341883
1637.27	0.00272517
1646.91	0.00247378
1656.55	0.00148126
1666.19	0.00103401
1675.84	0.00092306
1685.48	0.00109497
1695.12	0.000914786
1704.77	0.00039754
1714.41	0.000255156
1724.05	-0.000282999
1733.69	-0.00018265
1743.33	-0.00118496
1752.98	-0.000995823
1762.62	-0.000563378
1772.26	-6.86431e-05
1781.9	0.00120817
1791.55	0.0158167
1801.19	0.0109225
1810.83	0.000197905
1820.47	-0.00110236
1830.12	-0.00128463
1839.76	-0.00132931
1849.4	-0.00205307
1859.04	-0.00153214
1868.68	-0.000808172
1878.33	-0.0012321
1887.97	-0.00131094
1897.61	-0.000899321
1907.25	-0.00155018
1916.9	-0.00141099
1926.54	-0.00163014
1936.18	-0.000886583
1945.82	-0.00145674
1955.46	-0.000557162
1965.11	-0.00133304
1974.75	-0.000241931
1984.39	-0.000263884
1994.04	-0.00117117
2003.68	-0.0015129
2013.32	-8.35162e-05
2022.96	-0.00180645
2032.6	-0.00109817
2042.25	-0.000182143
2051.89	-0.00105603
2061.53	-0.00127343
2071.17	-0.0024493
2080.82	-0.00119576
2090.46	-0.00240537
2100.1	-0.0016253
2109.74	-0.00140533
2119.39	-0.00252249
2129.03	-0.00344097
2138.67	-0.00300369
2148.31	-0.00190865
2157.95	-0.000223202
2167.6	-0.00110145
2177.24	-0.00206256
2186.88	-0.000349194
2196.52	0.000164059
2206.17	-0.000427754
2215.81	-0.000883922
2225.45	-0.000607338
2235.09	-0.00120454
2244.74	-0.000220206
2254.38	-0.000456439
2264.02	-0.000805868
2273.66	-0.000773319
2283.3	-0.000279431
2292.95	-0.000286535
2302.59	-0.00110924
2312.23	-6.42001e-05
2321.87	0.000333098
2331.52	0.000453651
2341.16	0.000745973
2350.8	-0.000325535
2360.44	0.00114385
2370.09	-0.000181233
2379.73	-0.000506645
2389.37	-0.00152859
2399.01	-0.00126494
2408.66	-0.000729993
2418.3	-0.000898411
2427.94	-0.0013901
2437.58	-0.00128721
2447.22	-0.00024615
2456.87	0.000751153
2466.51	0.000190764
2476.15	0.000580214
2485.79	0.00264053
2495.44	0.00566299
2505.08	0.0109607
2514.72	0.0126128
2524.36	0.0082923
2534.01	0.00466446
2543.65	0.00111307
2553.29	0.00149751
2562.93	0.00108284
2572.57	0.000909879
2582.22	-0.000144928
2591.86	0.000203207
2601.5	0.000155081
2611.14	-0.000741474
2620.79	-0.00109987
2630.43	-0.00211908
2640.07	-0.00187894
2649.71	-0.00244891
2659.36	-0.0028936
2669	-0.00268486
2678.64	-0.00348751
2688.28	-0.00356267
2697.93	-0.00332446
2707.57	-0.00382745
2717.21	-0.00415522
2726.85	-0.0029948
2736.49	-0.00422636
2746.14	-0.00437362
2755.78	-0.00468289
2765.42	-0.00395792
2775.06	-0.00419531
2784.71	-0.00484802
2794.35	-0.00420574
2803.99	-0.00383512
2813.63	-0.00438396
2823.28	-0.00368375
2832.92	-0.00299275
2842.56	-0.00138629
2852.2	-0.000373994
2861.84	0.00099188
2871.49	0.00137035
2881.13	0.000536429
2890.77	-0.00124571
2900.41	-0.00102413
2910.06	-0.000623118
2919.7	-0.000920644
2929.34	-0.000480167
2938.98	-0.00158709
2948.62	-0.00174627
2958.27	-0.000746103
2967.91	-0.000576235
2977.55	-0.000537576
2987.2	-0.000877538
2996.84	-0.00178831
3006.48	-0.00268033
3016.12	-0.00223836
3025.76	-0.00228195
3035.41	-0.00209693
3045.05	-0.00183723
3054.69	-0.00120279
3064.33	-0.00149729
3073.98	-2.62779e-05
3083.62	-0.00038248
3093.26	9.50136e-05
3102.9	-0.000377163
3112.55	0.000261772
3122.19	0.00079991
3131.83	0.00121413
3141.47	0.000528566
3151.11	0.00196786
3160.76	0.00143186
3170.4	0.00160218
3180.04	0.000774458
3189.68	0.00154707
3199.33	0.00202323
3208.97	0.00134589
3218.61	0.00142359
3228.25	0.00194715
3237.9	0.000840289
3247.54	0.00195674
3257.18	0.00125646
3266.82	0.00109357
3276.47	0.00212985
3286.11	0.00133813
3295.75	0.000323601
3305.39	4.92845e-06
3315.03	0.000948675
3324.68	0.00127721
3334.32	0.000297331
3343.96	0.000573276
3353.6	-0.00053627
3363.25	0.000748163
3372.89	0.00104374
3382.53	0.000821753
3392.17	0.00079182
3401.82	0.00179666
3411.46	0.00080537
3421.1	0.000335908
3430.74	0.00080253
3440.39	0.000732818
3450.03	0.00109198
3459.67	0.000510661
3469.31	-0.00112014
3478.95	-0.000127024
3488.6	0.00176275
3498.24	-0.000545378
3507.88	0.000106354
3517.52	5.22152e-05
3527.17	0.000375898
3536.81	2.70708e-05
3546.45	-0.000705828
3556.09	-7.0695e-05
3565.74	-0.000257539
3575.38	-0.000803944
3585.02	-0.00029765
3594.66	-0.000688755
3604.3	-0.00194375
3613.95	-0.000145962
3623.59	-0.000640172
3633.23	-0.000771591
3642.87	-0.00123407
3652.52	0.000516003
3662.16	-0.00072073
3671.8	-0.000806534
3681.44	-0.00221913
3691.09	0.000948232
3700.73	0.000212637
3710.37	2.28669e-05
3720.01	-0.000185617
3729.66	-0.00114776
3739.3	0.000388343
3748.94	0.000369962
3758.58	-0.000848624
3768.22	-0.000489614
3777.87	-0.000433552
3787.51	-0.00149121
3797.15	-0.000389351
3806.79	5.99149e-05
3816.44	-0.000457321
3826.08	-0.00168878
3835.72	-0.000685525
3845.36	-0.000486135
3855.01	1.66052e-06
3864.65	0.000551224
3874.29	0.000817664
3883.93	0.00102494
3893.57	-0.000624163
3903.22	-0.00232775
3912.86	-0.00158849
3922.5	-0.00302946
3932.14	-8.57272e-05
3941.79	-0.000648212
3951.43	0.000511869
3961.07	-0.0015248
3970.71	-0.000895073
3980.36	-0.000842014
3990	-0.000911708
3999.64	-0.00107868
