Measurement: Infrared, Infrared Data Processed
Mineral: Carrollite
Rruff sample: R050089
Ideal chemistry: Cu^1+^Co^3+^_2_S_4_
Locality: Kambove, Katanga, Democratic Republic of the Congo
Source: Rock Currier
Description: Steel-gray octahedral crystal associated with calcite
Measured chemistry: (Cu_0.96_Fe^2+^_0.04_)_Σ=1_Co_2.00_S_4.00_ ; the vein is pyrite: (Fe_0.99_Co_0.01_)_Σ=1_S_2.00_
x	intensity
399.193	0
408.835	0.295463
418.477	0.298434
428.12	0.301949
437.762	0.308453
447.404	0.31241
457.047	0.319583
466.689	0.322653
476.331	0.32747
485.974	0.331598
495.616	0.335974
505.258	0.335799
514.901	0.336927
524.543	0.334093
534.185	0.331411
543.828	0.324866
553.47	0.326188
563.112	0.329322
572.755	0.330219
582.397	0.337054
592.039	0.348244
601.682	0.348272
611.324	0.332962
620.966	0.351615
630.609	0.333476
640.251	0.332915
649.893	0.351226
659.536	0.367608
669.178	0.359891
678.82	0.324142
688.463	0.338561
698.105	0.348979
707.747	0.358001
717.39	0.36557
727.032	0.372329
736.674	0.37856
746.317	0.385654
755.959	0.3935
765.601	0.401501
775.244	0.409443
784.886	0.413793
794.528	0.413
804.171	0.407997
813.813	0.400304
823.455	0.393002
833.098	0.390381
842.74	0.395616
852.382	0.399353
862.025	0.399149
871.667	0.394266
881.309	0.386696
890.952	0.382373
900.594	0.382979
910.236	0.38874
919.879	0.396222
929.521	0.403806
939.163	0.412033
948.806	0.419741
958.448	0.427387
968.09	0.434494
977.733	0.443245
987.375	0.4527
997.017	0.462674
1006.66	0.474915
1016.3	0.4813
1025.94	0.449776
1035.59	0.465489
1045.23	0.478337
1054.87	0.490923
1064.51	0.503365
1074.16	0.512253
1083.8	0.509214
1093.44	0.501524
1103.08	0.488142
1112.72	0.475859
1122.37	0.460344
1132.01	0.44707
1141.65	0.43679
1151.3	0.41175
1160.94	0.381576
1170.58	0.354571
1180.22	0.329839
1189.86	0.308793
1199.51	0.294056
1209.15	0.286293
1218.79	0.279326
1228.43	0.276544
1238.08	0.280492
1247.72	0.289587
1257.36	0.29767
1267	0.305471
1276.64	0.313322
1286.29	0.319795
1295.93	0.325613
1305.57	0.331087
1315.21	0.336345
1324.86	0.33979
1334.5	0.344289
1344.14	0.348268
1353.78	0.352149
1363.43	0.356044
1373.07	0.358753
1382.71	0.362198
1392.35	0.365629
1401.99	0.369166
1411.64	0.372827
1421.28	0.375603
1430.92	0.378613
1440.57	0.381496
1450.21	0.384641
1459.85	0.387691
1469.49	0.390268
1479.13	0.393589
1488.78	0.39594
1498.42	0.396322
1508.06	0.393096
1517.7	0.390067
1527.35	0.390461
1536.99	0.391361
1546.63	0.393835
1556.27	0.39598
1565.91	0.398355
1575.56	0.400093
1585.2	0.40244
1594.84	0.40555
1604.48	0.40767
1614.13	0.408969
1623.77	0.410465
1633.41	0.411782
1643.05	0.412808
1652.7	0.412744
1662.34	0.414073
1671.98	0.414609
1681.62	0.415323
1691.27	0.415509
1700.91	0.415173
1710.55	0.414318
1720.19	0.414294
1729.84	0.413561
1739.48	0.412922
1749.12	0.413513
1758.76	0.414552
1768.4	0.415285
1778.05	0.415775
1787.69	0.416349
1797.33	0.417316
1806.97	0.418327
1816.62	0.418341
1826.26	0.418301
1835.9	0.419639
1845.54	0.420191
1855.18	0.419971
1864.83	0.421886
1874.47	0.421051
1884.11	0.422508
1893.75	0.422106
1903.4	0.421987
1913.04	0.423236
1922.68	0.422797
1932.32	0.421859
1941.97	0.419824
1951.61	0.418446
1961.25	0.414271
1970.89	0.415743
1980.54	0.419587
1990.18	0.420661
1999.82	0.418728
2009.46	0.417882
2019.11	0.417859
2028.75	0.417696
2038.39	0.420599
2048.03	0.426785
2057.67	0.428679
2067.32	0.430872
2076.96	0.43374
2086.6	0.434949
2096.24	0.434419
2105.89	0.436666
2115.53	0.436214
2125.17	0.434486
2134.81	0.430051
2144.45	0.429131
2154.1	0.422225
2163.74	0.42773
2173.38	0.429291
2183.02	0.430513
2192.67	0.432957
2202.31	0.436121
2211.95	0.437616
2221.59	0.438417
2231.24	0.438653
2240.88	0.440515
2250.52	0.442573
2260.16	0.445057
2269.8	0.446536
2279.45	0.446696
2289.09	0.451073
2298.73	0.452092
2308.38	0.453938
2318.02	0.454932
2327.66	0.456587
2337.3	0.457197
2346.94	0.457278
2356.59	0.457979
2366.23	0.458199
2375.87	0.457852
2385.51	0.458621
2395.16	0.458141
2404.8	0.458919
2414.44	0.459525
2424.08	0.460395
2433.72	0.459849
2443.37	0.461413
2453.01	0.461743
2462.65	0.462668
2472.29	0.463107
2481.94	0.463949
2491.58	0.464036
2501.22	0.463274
2510.86	0.465655
2520.51	0.466008
2530.15	0.465675
2539.79	0.46601
2549.43	0.466707
2559.07	0.468057
2568.72	0.469454
2578.36	0.469646
2588	0.470737
2597.64	0.470798
2607.29	0.472021
2616.93	0.474398
2626.57	0.474929
2636.21	0.474778
2645.86	0.476997
2655.5	0.477692
2665.14	0.477915
2674.78	0.476925
2684.43	0.478849
2694.07	0.478585
2703.71	0.480411
2713.35	0.480336
2722.99	0.481032
2732.64	0.481961
2742.28	0.481507
2751.92	0.483117
2761.56	0.484362
2771.21	0.484628
2780.85	0.484472
2790.49	0.486016
2800.13	0.486258
2809.78	0.486693
2819.42	0.486747
2829.06	0.488416
2838.7	0.489009
2848.34	0.488531
2857.99	0.489408
2867.63	0.489978
2877.27	0.490236
2886.91	0.491004
2896.56	0.492065
2906.2	0.493515
2915.84	0.493878
2925.48	0.494664
2935.13	0.493384
2944.77	0.494713
2954.41	0.494546
2964.05	0.494981
2973.7	0.497205
2983.34	0.497985
2992.98	0.499349
3002.62	0.500271
3012.26	0.500815
3021.91	0.502725
3031.55	0.503162
3041.19	0.503922
3050.83	0.504429
3060.48	0.506355
3070.12	0.507674
3079.76	0.508169
3089.4	0.509758
3099.05	0.510204
3108.69	0.512099
3118.33	0.511305
3127.97	0.51352
3137.61	0.515669
3147.26	0.517114
3156.9	0.519346
3166.54	0.520725
3176.18	0.520097
3185.83	0.522447
3195.47	0.523254
3205.11	0.524101
3214.75	0.524523
3224.4	0.52542
3234.04	0.526465
3243.68	0.524962
3253.32	0.525708
3262.97	0.525831
3272.61	0.523914
3282.25	0.524384
3291.89	0.522251
3301.53	0.517335
3311.18	0.513297
3320.82	0.512401
3330.46	0.505547
3340.1	0.502479
3349.75	0.49824
3359.39	0.496577
3369.03	0.493872
3378.67	0.492449
3388.32	0.488357
3397.96	0.486086
3407.6	0.485928
3417.24	0.482704
3426.89	0.482466
3436.53	0.478791
3446.17	0.476576
3455.81	0.477648
3465.45	0.475983
3475.1	0.475118
3484.74	0.473051
3494.38	0.472663
3504.02	0.470928
3513.67	0.470928
3523.31	0.470182
3532.95	0.470714
3542.59	0.469315
3552.24	0.471479
3561.88	0.468831
3571.52	0.47005
3581.16	0.468261
3590.8	0.469957
3600.45	0.472465
3610.09	0.472123
3619.73	0.470761
3629.37	0.469464
3639.02	0.471771
3648.66	0.470983
3658.3	0.474712
3667.94	0.474737
3677.59	0.476637
3687.23	0.475936
3696.87	0.477959
3706.51	0.477629
3716.16	0.478873
3725.8	0.479168
3735.44	0.478207
3745.08	0.478662
3754.72	0.480726
3764.37	0.482585
3774.01	0.483996
3783.65	0.483409
3793.29	0.483473
3802.94	0.485192
3812.58	0.486753
3822.22	0.485087
3831.86	0.486645
3841.51	0.487259
3851.15	0.48731
3860.79	0.487293
3870.43	0.485798
3880.07	0.487457
3889.72	0.48866
3899.36	0.489778
3909	0.489647
3918.64	0.487417
3928.29	0.49109
3937.93	0.492704
3947.57	0.491684
3957.21	0.493593
3966.86	0.49076
3976.5	0.492798
3986.14	0.49252
3995.78	0.493934
