Measurement: Infrared, Infrared Data Processed
Mineral: Cerussite
Rruff sample: R040069
Ideal chemistry: Pb^2+^CO_3_
Locality: Broken Hill, New South Wales, Australia
Source: University of Arizona Mineral Museum
Description: Reticulated composite of colorless tabular crystals
Measured chemistry: Pb_1.04_C_0.98_O_3_
x	intensity
399.193	0
408.835	0.0162337
418.477	0.0142731
428.12	0.0147734
437.762	0.0150182
447.404	0.0166955
457.047	0.0170158
466.689	0.017152
476.331	0.0186403
485.974	0.021406
495.616	0.0223746
505.258	0.0243214
514.901	0.0258828
524.543	0.0278456
534.185	0.0291133
543.828	0.0319521
553.47	0.0332566
563.112	0.0355964
572.755	0.0380619
582.397	0.0409356
592.039	0.0432001
601.682	0.0458972
611.324	0.049301
620.966	0.054217
630.609	0.0589464
640.251	0.065622
649.893	0.0755
659.536	0.0962264
669.178	0.160193
678.82	0.21469
688.463	0.0184282
698.105	0.0278185
707.747	0.0319559
717.39	0.0395961
727.032	0.0455536
736.674	0.0487651
746.317	0.0505735
755.959	0.0541526
765.601	0.0582825
775.244	0.0628147
784.886	0.0666097
794.528	0.0717139
804.171	0.0784346
813.813	0.0915934
823.455	0.129821
833.098	0.214763
842.74	0.138397
852.382	0.0670479
862.025	0.0655527
871.667	0.0680361
881.309	0.069097
890.952	0.0715507
900.594	0.0739037
910.236	0.0768599
919.879	0.0796404
929.521	0.0823325
939.163	0.0853262
948.806	0.0882369
958.448	0.0911037
968.09	0.0939989
977.733	0.0974425
987.375	0.102852
997.017	0.10379
1006.66	0.104121
1016.3	0.1068
1025.94	0.111663
1035.59	0.118419
1045.23	0.141405
1054.87	0.119842
1064.51	0.113669
1074.16	0.120201
1083.8	0.126556
1093.44	0.135327
1103.08	0.141171
1112.72	0.13925
1122.37	0.140433
1132.01	0.14638
1141.65	0.151355
1151.3	0.156367
1160.94	0.161437
1170.58	0.166959
1180.22	0.173513
1189.86	0.181041
1199.51	0.189239
1209.15	0.196821
1218.79	0.205331
1228.43	0.21439
1238.08	0.225443
1247.72	0.237383
1257.36	0.250931
1267	0.265779
1276.64	0.281954
1286.29	0.298956
1295.93	0.314816
1305.57	0.327419
1315.21	0.339785
1324.86	0.356483
1334.5	0.378117
1344.14	0.402265
1353.78	0.433052
1363.43	0.464026
1373.07	0.48606
1382.71	0.47805
1392.35	0.439225
1401.99	0.381785
1411.64	0.334629
1421.28	0.319049
1430.92	0.30978
1440.57	0.275361
1450.21	0.2346
1459.85	0.198609
1469.49	0.16537
1479.13	0.132749
1488.78	0.0990931
1498.42	0.0709347
1508.06	0.0527131
1517.7	0.0419021
1527.35	0.0351984
1536.99	0.0301774
1546.63	0.0267795
1556.27	0.0245364
1565.91	0.0227748
1575.56	0.0205073
1585.2	0.0191465
1594.84	0.0181625
1604.48	0.0175318
1614.13	0.0173933
1623.77	0.0172426
1633.41	0.0166544
1643.05	0.0168665
1652.7	0.0172442
1662.34	0.0176016
1671.98	0.0181922
1681.62	0.0188189
1691.27	0.0201535
1700.91	0.0220506
1710.55	0.0233367
1720.19	0.0305842
1729.84	0.0522165
1739.48	0.0401083
1749.12	0.0244776
1758.76	0.0241657
1768.4	0.0250674
1778.05	0.0257527
1787.69	0.027277
1797.33	0.0279273
1806.97	0.0292717
1816.62	0.0300501
1826.26	0.0310392
1835.9	0.0325335
1845.54	0.033511
1855.18	0.0342716
1864.83	0.0343292
1874.47	0.0363066
1884.11	0.0365986
1893.75	0.0378383
1903.4	0.0374217
1913.04	0.0389797
1922.68	0.0394084
1932.32	0.0409525
1941.97	0.0401539
1951.61	0.0422665
1961.25	0.0417763
1970.89	0.0421236
1980.54	0.044036
1990.18	0.0458806
1999.82	0.0460886
2009.46	0.0457031
2019.11	0.0441747
2028.75	0.0483447
2038.39	0.050332
2048.03	0.0499284
2057.67	0.0507184
2067.32	0.0515461
2076.96	0.0509872
2086.6	0.0521119
2096.24	0.0521014
2105.89	0.054929
2115.53	0.0554831
2125.17	0.054692
2134.81	0.0531367
2144.45	0.0560045
2154.1	0.0529204
2163.74	0.0561875
2173.38	0.0550233
2183.02	0.0563429
2192.67	0.0575063
2202.31	0.0583402
2211.95	0.058829
2221.59	0.0605674
2231.24	0.0625186
2240.88	0.0630268
2250.52	0.0638952
2260.16	0.0640785
2269.8	0.06589
2279.45	0.067726
2289.09	0.0689611
2298.73	0.0693679
2308.38	0.0701727
2318.02	0.0721318
2327.66	0.0719659
2337.3	0.0730814
2346.94	0.073943
2356.59	0.0744425
2366.23	0.0756376
2375.87	0.0768689
2385.51	0.0801678
2395.16	0.0844492
2404.8	0.0892339
2414.44	0.0868073
2424.08	0.0799904
2433.72	0.0771905
2443.37	0.0771975
2453.01	0.0771228
2462.65	0.0764368
2472.29	0.0766628
2481.94	0.0775446
2491.58	0.0777114
2501.22	0.0774743
2510.86	0.0769551
2520.51	0.0775253
2530.15	0.0781475
2539.79	0.0764747
2549.43	0.0774799
2559.07	0.0773421
2568.72	0.0780046
2578.36	0.0786329
2588	0.0791373
2597.64	0.0802212
2607.29	0.0817789
2616.93	0.0829355
2626.57	0.0828554
2636.21	0.0830662
2645.86	0.0850115
2655.5	0.085316
2665.14	0.0853844
2674.78	0.0854498
2684.43	0.0868107
2694.07	0.0872575
2703.71	0.0884068
2713.35	0.0907716
2722.99	0.0923844
2732.64	0.0925824
2742.28	0.0922416
2751.92	0.0928454
2761.56	0.0924489
2771.21	0.0930212
2780.85	0.0929263
2790.49	0.0935212
2800.13	0.0930597
2809.78	0.0933086
2819.42	0.0939578
2829.06	0.0946656
2838.7	0.0931677
2848.34	0.093446
2857.99	0.0931476
2867.63	0.0928355
2877.27	0.0936558
2886.91	0.0942491
2896.56	0.0943098
2906.2	0.0951717
2915.84	0.0944524
2925.48	0.0961
2935.13	0.0976028
2944.77	0.0979552
2954.41	0.099298
2964.05	0.100374
2973.7	0.100451
2983.34	0.102094
2992.98	0.102236
3002.62	0.10399
3012.26	0.104957
3021.91	0.103819
3031.55	0.105669
3041.19	0.105877
3050.83	0.107592
3060.48	0.1075
3070.12	0.108046
3079.76	0.107943
3089.4	0.108999
3099.05	0.10932
3108.69	0.110599
3118.33	0.109718
3127.97	0.111861
3137.61	0.112259
3147.26	0.111795
3156.9	0.11302
3166.54	0.113105
3176.18	0.113831
3185.83	0.114421
3195.47	0.115586
3205.11	0.114471
3214.75	0.115257
3224.4	0.115923
3234.04	0.116439
3243.68	0.116027
3253.32	0.117401
3262.97	0.118223
3272.61	0.117029
3282.25	0.119359
3291.89	0.119519
3301.53	0.118845
3311.18	0.119489
3320.82	0.120341
3330.46	0.119498
3340.1	0.119088
3349.75	0.120209
3359.39	0.120616
3369.03	0.121608
3378.67	0.120901
3388.32	0.123077
3397.96	0.123937
3407.6	0.121325
3417.24	0.122403
3426.89	0.121977
3436.53	0.123822
3446.17	0.125154
3455.81	0.1232
3465.45	0.124729
3475.1	0.126034
3484.74	0.126418
3494.38	0.124481
3504.02	0.125628
3513.67	0.127259
3523.31	0.123233
3532.95	0.126726
3542.59	0.127791
3552.24	0.125992
3561.88	0.126621
3571.52	0.130417
3581.16	0.127658
3590.8	0.131456
3600.45	0.129731
3610.09	0.129436
3619.73	0.131305
3629.37	0.129872
3639.02	0.131948
3648.66	0.130293
3658.3	0.132793
3667.94	0.132215
3677.59	0.133509
3687.23	0.133031
3696.87	0.132072
3706.51	0.132122
3716.16	0.132983
3725.8	0.132991
3735.44	0.135098
3745.08	0.135797
3754.72	0.134752
3764.37	0.136549
3774.01	0.137105
3783.65	0.136805
3793.29	0.137446
3802.94	0.138966
3812.58	0.137034
3822.22	0.139699
3831.86	0.139897
3841.51	0.139922
3851.15	0.141634
3860.79	0.140584
3870.43	0.140743
3880.07	0.138514
3889.72	0.140652
3899.36	0.142563
3909	0.143067
3918.64	0.145679
3928.29	0.141976
3937.93	0.141808
3947.57	0.145762
3957.21	0.144819
3966.86	0.143746
3976.5	0.145055
3986.14	0.144786
3995.78	0.14508
