Measurement: Infrared, Infrared Data Processed
Mineral: Cerussite
Rruff sample: R050174
Ideal chemistry: Pb^2+^CO_3_
Locality: Tsumeb mine, Tsumeb, Otavi District, Oshikoto, Namibia
Source: Marcus Origlieri
Description: Colorless single crystal
Measured chemistry: Pb_1.00_CO_3_ ; C not measured but estimated by difference and stoichiometry
x	intensity
374.123	0.0261615
383.765	0.00684342
393.407	0.0163301
403.05	0.0133048
412.692	0.0155444
422.334	0.0160145
431.976	0.0172331
441.619	0.0180513
451.261	0.0187206
460.904	0.0227357
470.546	0.0251914
480.188	0.0270881
489.83	0.0272501
499.473	0.0283495
509.115	0.0300165
518.758	0.0323635
528.4	0.0343547
538.042	0.0354656
547.684	0.0376878
557.327	0.0407593
566.969	0.0429924
576.611	0.0455139
586.254	0.049401
595.896	0.0532281
605.538	0.0570882
615.181	0.0623966
624.823	0.0686131
634.466	0.0754011
644.108	0.0857205
653.75	0.102139
663.393	0.143432
673.035	0.27604
682.677	0.0768681
692.319	0.0246494
701.962	0.0332555
711.604	0.041638
721.246	0.0506067
730.889	0.0565479
740.531	0.0595203
750.173	0.0627947
759.816	0.0676101
769.458	0.0733846
779.101	0.0797677
788.743	0.0848455
798.385	0.093279
808.028	0.103194
817.67	0.128118
827.312	0.174494
836.955	0.314208
846.597	0.0973168
856.239	0.0795264
865.881	0.0803663
875.524	0.0825018
885.166	0.0855854
894.808	0.0888303
904.451	0.0923131
914.093	0.0961653
923.736	0.100507
933.378	0.103828
943.02	0.107847
952.663	0.112562
962.305	0.116415
971.947	0.120161
981.59	0.125977
991.232	0.13143
1000.87	0.132293
1010.52	0.134103
1020.16	0.139236
1029.8	0.147757
1039.44	0.159913
1049.09	0.256872
1058.73	0.14095
1068.37	0.153179
1078.01	0.163672
1087.65	0.174213
1097.3	0.183446
1106.94	0.186095
1116.58	0.18066
1126.22	0.185473
1135.87	0.191517
1145.51	0.197029
1155.15	0.202569
1164.79	0.209177
1174.44	0.215987
1184.08	0.223942
1193.72	0.231996
1203.36	0.240818
1213.01	0.249587
1222.65	0.259674
1232.29	0.271596
1241.93	0.284953
1251.58	0.299542
1261.22	0.315455
1270.86	0.332772
1280.5	0.350852
1290.14	0.368606
1299.79	0.384634
1309.43	0.39664
1319.07	0.411339
1328.71	0.431088
1338.36	0.453816
1348	0.481432
1357.64	0.51154
1367.28	0.537954
1376.92	0.543243
1386.57	0.514323
1396.21	0.455588
1405.85	0.392432
1415.49	0.356126
1425.14	0.346956
1434.78	0.325104
1444.42	0.281303
1454.06	0.239294
1463.71	0.202422
1473.35	0.168283
1482.99	0.132422
1492.63	0.0978101
1502.28	0.0712633
1511.92	0.0550387
1521.56	0.0461237
1531.2	0.0392645
1540.85	0.0354035
1550.49	0.0310867
1560.13	0.0296705
1569.77	0.0269203
1579.41	0.0248981
1589.06	0.023238
1598.7	0.0225379
1608.34	0.0222323
1617.98	0.0223749
1627.63	0.0222452
1637.27	0.0222274
1646.91	0.0227911
1656.55	0.0224606
1666.19	0.0227367
1675.84	0.023464
1685.48	0.0250395
1695.12	0.0267405
1704.77	0.0272119
1714.41	0.030119
1724.05	0.0517588
1733.69	0.0507204
1743.33	0.0423892
1752.98	0.0285196
1762.62	0.0294958
1772.26	0.031497
1781.9	0.0323946
1791.55	0.0333818
1801.19	0.0347064
1810.83	0.035784
1820.47	0.0374213
1830.12	0.0381771
1839.76	0.039011
1849.4	0.0403727
1859.04	0.0423478
1868.68	0.0430138
1878.33	0.0442112
1887.97	0.0453004
1897.61	0.045946
1907.25	0.0463335
1916.9	0.047772
1926.54	0.047802
1936.18	0.0494802
1945.82	0.0497123
1955.46	0.0500069
1965.11	0.0502261
1974.75	0.0508897
1984.39	0.0527497
1994.04	0.0542591
2003.68	0.0528657
2013.32	0.055133
2022.96	0.0554089
2032.6	0.0565963
2042.25	0.0580002
2051.89	0.0619914
2061.53	0.0612786
2071.17	0.0623928
2080.82	0.0632008
2090.46	0.0634978
2100.1	0.06389
2109.74	0.0671065
2119.39	0.0664286
2129.03	0.0660137
2138.67	0.0671714
2148.31	0.0657465
2157.95	0.0624031
2167.6	0.0697301
2177.24	0.0669952
2186.88	0.0712704
2196.52	0.0708974
2206.17	0.0730014
2215.81	0.0720648
2225.45	0.0742254
2235.09	0.0766929
2244.74	0.076656
2254.38	0.0776117
2264.02	0.0789588
2273.66	0.0810654
2283.3	0.0823962
2292.95	0.0831485
2302.59	0.0849251
2312.23	0.086292
2321.87	0.0884867
2331.52	0.088573
2341.16	0.0902613
2350.8	0.0909094
2360.44	0.0920738
2370.09	0.0939165
2379.73	0.0953182
2389.37	0.0995259
2399.01	0.105788
2408.66	0.109068
2418.3	0.10231
2427.94	0.0958445
2437.58	0.0937137
2447.22	0.0930983
2456.87	0.0941589
2466.51	0.0948296
2476.15	0.0946819
2485.79	0.0948834
2495.44	0.0950029
2505.08	0.0947179
2514.72	0.0960602
2524.36	0.0953852
2534.01	0.0956419
2543.65	0.0954195
2553.29	0.0955415
2562.93	0.0972862
2572.57	0.0976377
2582.22	0.098317
2591.86	0.0988945
2601.5	0.0997603
2611.14	0.100707
2620.79	0.102067
2630.43	0.103247
2640.07	0.103851
2649.71	0.104861
2659.36	0.1053
2669	0.106547
2678.64	0.107288
2688.28	0.10794
2697.93	0.108874
2707.57	0.111235
2717.21	0.112165
2726.85	0.113468
2736.49	0.115095
2746.14	0.115173
2755.78	0.115246
2765.42	0.11559
2775.06	0.115427
2784.71	0.116456
2794.35	0.116947
2803.99	0.117256
2813.63	0.117284
2823.28	0.117307
2832.92	0.117786
2842.56	0.118439
2852.2	0.118994
2861.84	0.118515
2871.49	0.117808
2881.13	0.119138
2890.77	0.119872
2900.41	0.121032
2910.06	0.122615
2919.7	0.124674
2929.34	0.125641
2938.98	0.123556
2948.62	0.124086
2958.27	0.124475
2967.91	0.12431
2977.55	0.124945
2987.2	0.125994
2996.84	0.126208
3006.48	0.126703
3016.12	0.12853
3025.76	0.128858
3035.41	0.129312
3045.05	0.13055
3054.69	0.130909
3064.33	0.132242
3073.98	0.13199
3083.62	0.133127
3093.26	0.134139
3102.9	0.134147
3112.55	0.134657
3122.19	0.135303
3131.83	0.135724
3141.47	0.137789
3151.11	0.137819
3160.76	0.138294
3170.4	0.137567
3180.04	0.139886
3189.68	0.140683
3199.33	0.140985
3208.97	0.140919
3218.61	0.141169
3228.25	0.142884
3237.9	0.141991
3247.54	0.143329
3257.18	0.14293
3266.82	0.145268
3276.47	0.145273
3286.11	0.146067
3295.75	0.14625
3305.39	0.145742
3315.03	0.14746
3324.68	0.146629
3334.32	0.147232
3343.96	0.149961
3353.6	0.148687
3363.25	0.149944
3372.89	0.150516
3382.53	0.149803
3392.17	0.150365
3401.82	0.150853
3411.46	0.150711
3421.1	0.151506
3430.74	0.151445
3440.39	0.152674
3450.03	0.151154
3459.67	0.151427
3469.31	0.152382
3478.95	0.153236
3488.6	0.154837
3498.24	0.15448
3507.88	0.153724
3517.52	0.154995
3527.17	0.153947
3536.81	0.15625
3546.45	0.155838
3556.09	0.157183
3565.74	0.156041
3575.38	0.156916
3585.02	0.15867
3594.66	0.157199
3604.3	0.15972
3613.95	0.158076
3623.59	0.158585
3633.23	0.158713
3642.87	0.159024
3652.52	0.161324
3662.16	0.163012
3671.8	0.160869
3681.44	0.162623
3691.09	0.161535
3700.73	0.163732
3710.37	0.163545
3720.01	0.163913
3729.66	0.165383
3739.3	0.165843
3748.94	0.168242
3758.58	0.165904
3768.22	0.167585
3777.87	0.168166
3787.51	0.166146
3797.15	0.165896
3806.79	0.168999
3816.44	0.168089
3826.08	0.169125
3835.72	0.168649
3845.36	0.16925
3855.01	0.170708
3864.65	0.169834
3874.29	0.169649
3883.93	0.170113
3893.57	0.170178
3903.22	0.170844
3912.86	0.171913
3922.5	0.172543
3932.14	0.173777
3941.79	0.172186
3951.43	0.171745
3961.07	0.172379
3970.71	0.17538
3980.36	0.175372
3990	0.173476
3999.64	0.176301
