Measurement: Infrared, Infrared Data Processed
Mineral: Chabazite-Ca
Rruff sample: R050014
Ideal chemistry: Ca_2_Al_4_Si_8_O_24_13H_2_O
Locality: Tablo Mountain, Baja California, Mexico
Source: University of Arizona Mineral Museum
Description: Light tan colored rhombohedral single crystals
Measured chemistry: (Ca_0.72_Mg_0.11_K_0.09_Sr_0.06_Na_0.01_)_Σ=1_(Si_4.12_Al_1.88_)O_12_·6H_2_O
x	intensity
399.193	0
408.835	0.181905
418.477	0.158171
428.12	0.142559
437.762	0.142358
447.404	0.14656
457.047	0.148914
466.689	0.137267
476.331	0.123727
485.974	0.112688
495.616	0.112616
505.258	0.118949
514.901	0.122093
524.543	0.107857
534.185	0.0917584
543.828	0.0858513
553.47	0.088162
563.112	0.09341
572.755	0.0992885
582.397	0.105759
592.039	0.112289
601.682	0.11834
611.324	0.122231
620.966	0.120113
630.609	0.113695
640.251	0.1025
649.893	0.0889581
659.536	0.0766902
669.178	0.071016
678.82	0.0701471
688.463	0.069244
698.105	0.0691129
707.747	0.0683624
717.39	0.0665745
727.032	0.0636043
736.674	0.0595073
746.317	0.0549681
755.959	0.0510735
765.601	0.0478772
775.244	0.0432103
784.886	0.0380582
794.528	0.033593
804.171	0.0305625
813.813	0.0294931
823.455	0.0292266
833.098	0.0297848
842.74	0.0320923
852.382	0.0332525
862.025	0.0364341
871.667	0.0396345
881.309	0.0440031
890.952	0.0502915
900.594	0.0591675
910.236	0.0726543
919.879	0.0938024
929.521	0.127778
939.163	0.177488
948.806	0.235661
958.448	0.281521
968.09	0.310233
977.733	0.328204
987.375	0.334192
997.017	0.32594
1006.66	0.30867
1016.3	0.285618
1025.94	0.256024
1035.59	0.221823
1045.23	0.18615
1054.87	0.155472
1064.51	0.13536
1074.16	0.124315
1083.8	0.118188
1093.44	0.113039
1103.08	0.108356
1112.72	0.103282
1122.37	0.0975636
1132.01	0.0911685
1141.65	0.0845089
1151.3	0.076415
1160.94	0.0670696
1170.58	0.0562302
1180.22	0.0446305
1189.86	0.0338394
1199.51	0.0247637
1209.15	0.0189475
1218.79	0.0151619
1228.43	0.0124122
1238.08	0.0106327
1247.72	0.00930231
1257.36	0.00844901
1267	0.00756408
1276.64	0.00745797
1286.29	0.00729197
1295.93	0.00711899
1305.57	0.00717712
1315.21	0.00709048
1324.86	0.00699889
1334.5	0.00711521
1344.14	0.00699144
1353.78	0.00731878
1363.43	0.00771953
1373.07	0.00839505
1382.71	0.0094136
1392.35	0.0104787
1401.99	0.011493
1411.64	0.0119764
1421.28	0.011978
1430.92	0.0126348
1440.57	0.0132987
1450.21	0.0130337
1459.85	0.012329
1469.49	0.0113195
1479.13	0.0106711
1488.78	0.00969397
1498.42	0.00914103
1508.06	0.00852557
1517.7	0.00836107
1527.35	0.0088886
1536.99	0.00927153
1546.63	0.010037
1556.27	0.0110668
1565.91	0.0121867
1575.56	0.0130704
1585.2	0.0148178
1594.84	0.016866
1604.48	0.0199467
1614.13	0.0259714
1623.77	0.0336497
1633.41	0.0416238
1643.05	0.0443406
1652.7	0.0422531
1662.34	0.0373164
1671.98	0.030097
1681.62	0.0227848
1691.27	0.0166341
1700.91	0.0116285
1710.55	0.0102799
1720.19	0.00800213
1729.84	0.00683538
1739.48	0.00509861
1749.12	0.00475971
1758.76	0.00509358
1768.4	0.00499002
1778.05	0.004798
1787.69	0.00483211
1797.33	0.00440216
1806.97	0.00424664
1816.62	0.00391406
1826.26	0.0034426
1835.9	0.00379947
1845.54	0.00296189
1855.18	0.00330504
1864.83	0.003028
1874.47	0.00237184
1884.11	0.00158692
1893.75	0.00129267
1903.4	0.000928219
1913.04	0.000822164
1922.68	-0.000251094
1932.32	-0.00180385
1941.97	-0.0021649
1951.61	-0.00208833
1961.25	-0.00483132
1970.89	-0.0054681
1980.54	-0.000249887
1990.18	-0.00431087
1999.82	-0.00353324
2009.46	-0.00677553
2019.11	-0.00429566
2028.75	-0.00558113
2038.39	-0.00178118
2048.03	-0.00065918
2057.67	-0.00101484
2067.32	-1.89899e-05
2076.96	0.00240338
2086.6	0.00266169
2096.24	0.00173757
2105.89	0.00367247
2115.53	0.00362915
2125.17	0.00196663
2134.81	-0.00159372
2144.45	0.000700592
2154.1	-0.00399025
2163.74	0.00309132
2173.38	0.000508101
2183.02	-0.000639848
2192.67	0.00281585
2202.31	0.00384705
2211.95	0.000902013
2221.59	0.00393204
2231.24	0.00413403
2240.88	0.00498673
2250.52	0.0049728
2260.16	0.00454474
2269.8	0.00616875
2279.45	0.00669234
2289.09	0.00731064
2298.73	0.00693235
2308.38	0.00765169
2318.02	0.0085852
2327.66	0.00741886
2337.3	0.00759108
2346.94	0.00679297
2356.59	0.00695884
2366.23	0.0064945
2375.87	0.00713702
2385.51	0.0076634
2395.16	0.00740849
2404.8	0.00726978
2414.44	0.0083959
2424.08	0.00813103
2433.72	0.00699806
2443.37	0.00791824
2453.01	0.00784357
2462.65	0.00865394
2472.29	0.00808353
2481.94	0.0085545
2491.58	0.00827191
2501.22	0.00768296
2510.86	0.00789576
2520.51	0.00821675
2530.15	0.00886567
2539.79	0.00783486
2549.43	0.00886647
2559.07	0.00997781
2568.72	0.0103651
2578.36	0.00893189
2588	0.0096474
2597.64	0.00979884
2607.29	0.0100318
2616.93	0.01044
2626.57	0.0107027
2636.21	0.0109364
2645.86	0.0111041
2655.5	0.0107441
2665.14	0.0101484
2674.78	0.0099453
2684.43	0.0102936
2694.07	0.0105561
2703.71	0.0111798
2713.35	0.0110939
2722.99	0.0111551
2732.64	0.01172
2742.28	0.0115291
2751.92	0.0112293
2761.56	0.0124312
2771.21	0.0127825
2780.85	0.0121976
2790.49	0.0123806
2800.13	0.0132324
2809.78	0.0133739
2819.42	0.0135486
2829.06	0.0137838
2838.7	0.0142249
2848.34	0.014274
2857.99	0.0147386
2867.63	0.0153041
2877.27	0.0162567
2886.91	0.0162559
2896.56	0.0164883
2906.2	0.0174064
2915.84	0.0170083
2925.48	0.0178788
2935.13	0.0183916
2944.77	0.0200617
2954.41	0.0182001
2964.05	0.0208768
2973.7	0.0213824
2983.34	0.0228342
2992.98	0.0240966
3002.62	0.0259201
3012.26	0.0262432
3021.91	0.0269828
3031.55	0.0282184
3041.19	0.0295205
3050.83	0.0304179
3060.48	0.0327012
3070.12	0.0334146
3079.76	0.0351207
3089.4	0.0361957
3099.05	0.0389602
3108.69	0.0389768
3118.33	0.0404988
3127.97	0.0426821
3137.61	0.0449895
3147.26	0.0478797
3156.9	0.0481404
3166.54	0.0501462
3176.18	0.0519704
3185.83	0.0548682
3195.47	0.0569804
3205.11	0.0583132
3214.75	0.061178
3224.4	0.0605858
3234.04	0.0630394
3243.68	0.0636576
3253.32	0.0649588
3262.97	0.0652251
3272.61	0.0666837
3282.25	0.0662006
3291.89	0.0674473
3301.53	0.0670354
3311.18	0.068768
3320.82	0.0703316
3330.46	0.069207
3340.1	0.0723639
3349.75	0.0749312
3359.39	0.0754034
3369.03	0.0770678
3378.67	0.0767941
3388.32	0.0770043
3397.96	0.0772094
3407.6	0.0762937
3417.24	0.0755041
3426.89	0.0750695
3436.53	0.0742541
3446.17	0.0722034
3455.81	0.0701723
3465.45	0.0707487
3475.1	0.0675116
3484.74	0.0670881
3494.38	0.0652309
3504.02	0.0646936
3513.67	0.0640646
3523.31	0.0620903
3532.95	0.0605641
3542.59	0.0602532
3552.24	0.0572957
3561.88	0.0552829
3571.52	0.0528622
3581.16	0.0487953
3590.8	0.0453737
3600.45	0.0433444
3610.09	0.038681
3619.73	0.0313958
3629.37	0.0295625
3639.02	0.0230127
3648.66	0.0199022
3658.3	0.0163659
3667.94	0.0135376
3677.59	0.0125858
3687.23	0.0112345
3696.87	0.0117994
3706.51	0.0134763
3716.16	0.0101996
3725.8	0.0103588
3735.44	0.0125298
3745.08	0.0117848
3754.72	0.0132947
3764.37	0.0114892
3774.01	0.011452
3783.65	0.0124001
3793.29	0.0132313
3802.94	0.0144678
3812.58	0.0123272
3822.22	0.012122
3831.86	0.0105165
3841.51	0.010335
3851.15	0.01142
3860.79	0.0101059
3870.43	0.00991372
3880.07	0.0117537
3889.72	0.0123313
3899.36	0.0122466
3909	0.01197
3918.64	0.0141893
3928.29	0.0108888
3937.93	0.0119338
3947.57	0.0125939
3957.21	0.0127707
3966.86	0.0128623
3976.5	0.0117866
3986.14	0.0133513
3995.78	0.0130052
