Measurement: Infrared, Infrared Data Processed
Mineral: Chalcophanite
Rruff sample: R050451
Ideal chemistry: Zn^2+^Mn^4+^_3_O_7_3H_2_O
Locality: Morenci mine, Morenci, Greenlee County, Arizona, USA
Source: University of Arizona Mineral Museum
Description: A mass of small black hexagonal plates, not homogeneous
Measured chemistry: (Zn_0.60_Fe^2+^_0.20_Cu_0.12_Fe^3+^_0.08_)_Σ=1_(Mn^4+^_2.92_Fe^3+^_0.08_)_Σ=3_O_7_·3H_2_O ; = bright phase. The gray phase is jacobsite (Mn_0.65_Zn_0.25_Cu_0.09_)_Σ=1_(Fe^3+^_1.58_Mn^3+^_0.42_)_Σ=2_O_4_; dark phase: K-feldspar
x	intensity
50.1401	0.00964132
52.0686	0.0147887
53.9971	0.0217229
55.9255	0.026651
57.854	0.0282237
59.7825	0.0310729
61.7109	0.027607
63.6394	0.0260974
65.5679	0.0281184
67.4963	0.028214
69.4248	0.0285309
71.3533	0.0352849
73.2817	0.0363433
75.2102	0.0355301
77.1387	0.0361311
79.0671	0.0403696
80.9956	0.0408413
82.9241	0.0397616
84.8525	0.0404284
86.781	0.0437922
88.7095	0.0438488
90.6379	0.0433983
92.5664	0.0446573
94.4948	0.0469505
96.4233	0.0470218
98.3518	0.047078
100.28	0.0468178
102.209	0.0458961
104.137	0.0467599
106.066	0.0495882
107.994	0.0500921
109.923	0.0497918
111.851	0.0510458
113.779	0.051868
115.708	0.0520368
117.636	0.0528629
119.565	0.0547873
121.493	0.056004
123.422	0.0549907
125.35	0.0552489
127.279	0.0571927
129.207	0.0601549
131.136	0.0612801
133.064	0.0619747
134.993	0.0624419
136.921	0.0633403
138.85	0.0653213
140.778	0.0669557
142.707	0.0661262
144.635	0.065763
146.563	0.0654105
148.492	0.066004
150.42	0.0667934
152.349	0.0679981
154.277	0.0682782
156.206	0.0692436
158.134	0.0698488
160.063	0.0705808
161.991	0.0715491
163.92	0.0735068
165.848	0.075205
167.777	0.0755909
169.705	0.0761427
171.633	0.0777662
173.562	0.0787113
175.49	0.0800291
177.419	0.08148
179.347	0.0827501
181.276	0.0837151
183.204	0.084061
185.133	0.0842501
187.061	0.0854413
188.99	0.0870129
190.918	0.0876036
192.847	0.0872395
194.775	0.0880783
196.704	0.0891469
198.632	0.0900761
200.56	0.0903228
202.489	0.0906934
204.417	0.090272
206.346	0.0906557
208.274	0.0910694
210.203	0.0914989
212.131	0.0909633
214.06	0.0909419
215.988	0.0918587
217.917	0.0934832
219.845	0.0945669
221.774	0.0955828
223.702	0.0963842
225.631	0.0971985
227.559	0.0970035
229.488	0.0968325
231.416	0.0972431
233.344	0.0975078
235.273	0.0982909
237.201	0.099609
239.13	0.10053
241.058	0.101145
242.987	0.101748
244.915	0.103399
246.844	0.104958
248.772	0.105433
250.701	0.105095
252.629	0.106034
254.558	0.107292
256.486	0.108664
258.414	0.109655
260.343	0.110372
262.271	0.110773
264.2	0.1117
266.128	0.112398
268.057	0.112638
269.985	0.112633
271.914	0.113897
273.842	0.11459
275.771	0.114986
277.699	0.115919
279.628	0.116681
281.556	0.116664
283.485	0.117031
285.413	0.116815
287.341	0.116704
289.27	0.116964
291.198	0.117566
293.127	0.117918
295.055	0.11829
296.984	0.118648
298.912	0.119083
300.841	0.119964
302.769	0.121145
304.698	0.121889
306.626	0.122302
308.555	0.122853
310.483	0.124063
312.411	0.12537
314.34	0.127022
316.269	0.128269
318.197	0.129464
320.125	0.130326
322.054	0.130703
323.982	0.130463
325.911	0.130566
327.839	0.131132
329.768	0.132118
331.696	0.133255
333.625	0.134187
335.553	0.134739
337.482	0.135662
339.41	0.136854
341.339	0.138049
343.267	0.138566
345.195	0.1388
347.124	0.139041
349.052	0.140017
350.981	0.141028
352.909	0.141477
354.838	0.141944
356.766	0.142891
358.695	0.143724
360.623	0.143971
362.552	0.144585
364.48	0.145895
366.409	0.146896
368.337	0.147867
370.265	0.148892
372.194	0.149748
374.122	0.15072
376.051	0.151376
377.979	0.15103
379.908	0.151259
381.836	0.15183
383.765	0.152861
385.693	0.153625
387.622	0.154527
389.55	0.155726
391.479	0.156643
393.407	0.157359
395.336	0.157897
397.264	0.158246
399.192	0.15833
401.121	0.158781
403.049	0.159675
404.978	0.160063
406.906	0.160631
408.835	0.161397
410.763	0.161977
412.692	0.16229
414.62	0.162938
416.549	0.163906
418.477	0.164665
420.406	0.164532
422.334	0.164487
424.262	0.164578
426.191	0.165039
428.12	0.164567
430.048	0.164053
431.976	0.163679
433.905	0.163151
435.833	0.162312
437.762	0.161147
439.69	0.159933
441.619	0.158764
443.547	0.157063
445.476	0.155507
447.404	0.15345
449.333	0.151524
451.261	0.149553
453.19	0.147519
455.118	0.145304
457.046	0.143431
458.975	0.141859
460.903	0.141519
462.832	0.142696
464.76	0.144343
466.689	0.146002
468.617	0.147982
470.546	0.1486
472.474	0.149122
474.403	0.149198
476.331	0.147361
478.26	0.144333
480.188	0.141489
482.116	0.140533
484.045	0.1425
485.974	0.145506
487.902	0.148209
489.83	0.150842
491.759	0.153746
493.687	0.155243
495.616	0.155057
497.544	0.154945
499.473	0.155477
501.401	0.155276
503.33	0.154127
505.258	0.152249
507.187	0.150844
509.115	0.149144
511.043	0.147295
512.972	0.145156
514.9	0.143613
516.829	0.143842
518.757	0.145767
520.686	0.147588
522.614	0.149039
524.543	0.150544
526.471	0.152579
528.4	0.153383
530.328	0.153382
532.257	0.152829
534.185	0.152174
536.114	0.151689
538.042	0.151128
539.971	0.149452
541.899	0.147404
543.827	0.145657
545.756	0.144084
547.684	0.14238
549.613	0.141029
551.541	0.13971
553.47	0.138125
555.398	0.137279
557.327	0.137346
559.255	0.136115
561.184	0.134557
563.112	0.133679
565.041	0.133513
566.969	0.132367
568.898	0.131525
570.826	0.13101
572.755	0.130322
574.683	0.129379
576.611	0.128876
578.54	0.12811
580.468	0.127206
582.397	0.126205
584.325	0.125019
586.254	0.124342
588.182	0.124113
590.111	0.123273
592.039	0.12194
593.968	0.120121
595.896	0.118505
597.824	0.1169
599.753	0.115167
601.682	0.113663
603.61	0.112766
605.538	0.112386
607.467	0.112567
609.395	0.112642
611.324	0.112632
613.252	0.113332
615.181	0.114152
617.109	0.114985
619.038	0.117101
620.966	0.117351
622.894	0.116017
624.823	0.115409
626.751	0.115901
628.68	0.116585
630.608	0.117206
632.537	0.117416
634.465	0.117826
636.394	0.1182
638.322	0.118449
640.251	0.118824
642.179	0.118786
644.108	0.118394
646.036	0.118253
647.965	0.117564
649.893	0.11663
651.822	0.116183
653.75	0.116523
655.678	0.116686
657.607	0.11678
659.535	0.116719
661.464	0.116496
663.392	0.115996
665.321	0.115566
667.249	0.115494
669.178	0.114476
671.106	0.113283
673.035	0.112471
674.963	0.111718
676.892	0.110376
678.82	0.109059
680.749	0.107566
682.677	0.106296
684.606	0.105022
686.534	0.1034
688.462	0.101812
690.391	0.100467
692.319	0.099287
694.248	0.0978354
696.176	0.0973657
698.105	0.0964095
700.033	0.0958612
