Measurement: Infrared, Infrared Data Processed
Mineral: Chalcopyrite
Rruff sample: R050208
Ideal chemistry: Cu^1+^Fe^3+^S^2-^_2_
Locality: Kidd Creek mine, Timmins, Ontario, Canada
Source: Lloyd Twaites
Description: Brass yellow metallic fine-grained massive
Measured chemistry: Cu_1.00_Fe_1.00_S_2.00_
x	intensity
50.1401	0.0224114
52.0686	0.0178068
53.9971	0.0136261
55.9255	0.0155786
57.854	0.0175637
59.7825	0.0234608
61.7109	0.0286465
63.6394	0.0231015
65.5679	0.0179993
67.4963	0.0165242
69.4248	0.0189832
71.3533	0.0204502
73.2817	0.022177
75.2102	0.0229875
77.1387	0.0246154
79.0671	0.0249011
80.9956	0.0246794
82.9241	0.0243757
84.8525	0.0232052
86.781	0.0227895
88.7095	0.0246856
90.6379	0.0256178
92.5664	0.0246763
94.4948	0.0252271
96.4233	0.0276734
98.3518	0.0275197
100.28	0.0269509
102.209	0.0268566
104.137	0.0271035
106.066	0.0281723
107.994	0.0289626
109.923	0.0287723
111.851	0.0282598
113.779	0.0289662
115.708	0.0306248
117.636	0.0309076
119.565	0.0314849
121.493	0.0313353
123.422	0.0314959
125.35	0.0320517
127.279	0.0322631
129.207	0.03228
131.136	0.0332868
133.064	0.0340133
134.993	0.0348118
136.921	0.0352775
138.85	0.0361448
140.778	0.0365569
142.707	0.0362545
144.635	0.0363936
146.563	0.0371398
148.492	0.0372407
150.42	0.0376843
152.349	0.0386059
154.277	0.0388686
156.206	0.0387001
158.134	0.0395855
160.063	0.0396564
161.991	0.0396165
163.92	0.0399777
165.848	0.0406129
167.777	0.0406853
169.705	0.0410071
171.633	0.0411343
173.562	0.041426
175.49	0.0417715
177.419	0.0418624
179.347	0.0424047
181.276	0.0427116
183.204	0.0427215
185.133	0.043026
187.061	0.0428628
188.99	0.0430011
190.918	0.0431541
192.847	0.0438701
194.775	0.0445894
196.704	0.0448575
198.632	0.0448685
200.56	0.0455426
202.489	0.046381
204.417	0.0468625
206.346	0.0469702
208.274	0.0473069
210.203	0.0473488
212.131	0.0476525
214.06	0.047828
215.988	0.0480255
217.917	0.0482558
219.845	0.0485641
221.774	0.0490406
223.702	0.0497096
225.631	0.0499487
227.559	0.0504732
229.488	0.0504165
231.416	0.0506647
233.344	0.0512363
235.273	0.0516088
237.201	0.0519111
239.13	0.0525417
241.058	0.0529035
242.987	0.0533947
244.915	0.0534956
246.844	0.0536956
248.772	0.0544283
250.701	0.0550817
252.629	0.0553424
254.558	0.0557957
256.486	0.0561588
258.414	0.0570735
260.343	0.0577787
262.271	0.0582262
264.2	0.0581303
266.128	0.0582879
268.057	0.0587912
269.985	0.0591667
271.914	0.0593055
273.842	0.0595215
275.771	0.059691
277.699	0.0602665
279.628	0.0608668
281.556	0.0614525
283.485	0.0617194
285.413	0.0621644
287.341	0.0626091
289.27	0.0633538
291.198	0.0637982
293.127	0.0642856
295.055	0.0649183
296.984	0.0653587
298.912	0.0654525
300.841	0.0661091
302.769	0.0669816
304.698	0.0676969
306.626	0.0681241
308.555	0.0684292
310.483	0.0689497
312.411	0.0695357
314.34	0.0696338
316.269	0.0701367
318.197	0.0705505
320.125	0.0708612
322.054	0.0706518
323.982	0.0702196
325.911	0.0697915
327.839	0.0690736
329.768	0.0684587
331.696	0.0686433
333.625	0.0693703
335.553	0.0702227
337.482	0.0708776
339.41	0.0717067
341.339	0.0726229
343.267	0.0733557
345.195	0.0739675
347.124	0.0744753
349.052	0.0746479
350.981	0.0743971
352.909	0.0743445
354.838	0.0750719
356.766	0.0759699
358.695	0.0763452
360.623	0.0759869
362.552	0.0751992
364.48	0.0739971
366.409	0.0729584
368.337	0.0716772
370.265	0.0709336
372.194	0.0704909
374.122	0.070156
376.051	0.0696306
377.979	0.0687943
379.908	0.0679455
381.836	0.0674038
383.765	0.0670314
385.693	0.0669701
387.622	0.0672429
389.55	0.0676446
391.479	0.0679969
393.407	0.0684308
395.336	0.0687816
397.264	0.0692277
399.192	0.0696284
401.121	0.0699755
403.049	0.0704142
404.978	0.0707722
406.906	0.0709631
408.835	0.0715114
410.763	0.0719818
412.692	0.0723957
414.62	0.0725811
416.549	0.0730206
418.477	0.0736624
420.406	0.0742697
422.334	0.0745637
424.262	0.0747835
426.191	0.0752047
428.12	0.0757068
430.048	0.0764662
431.976	0.0771003
433.905	0.077332
435.833	0.0775853
437.762	0.077683
439.69	0.0777381
441.619	0.0776992
443.547	0.0782166
445.476	0.0784129
447.404	0.0784742
449.333	0.0786971
451.261	0.0790218
453.19	0.0792076
455.118	0.0795976
457.046	0.0802892
458.975	0.0805083
460.903	0.0803509
462.832	0.0806229
464.76	0.0808702
466.689	0.0811942
468.617	0.0812582
470.546	0.0814108
472.474	0.0812035
474.403	0.0810852
476.331	0.0811466
478.26	0.0816027
480.188	0.0819346
482.116	0.0820551
484.045	0.0820821
485.974	0.0826618
487.902	0.0827796
489.83	0.0829302
491.759	0.083247
493.687	0.083376
495.616	0.0837066
497.544	0.084279
499.473	0.0846086
501.401	0.0851741
503.33	0.0853197
505.258	0.0851779
507.187	0.0852374
509.115	0.0853585
511.043	0.0853073
512.972	0.0855273
514.9	0.0857693
516.829	0.0863544
518.757	0.0866996
520.686	0.0866544
522.614	0.0868681
524.543	0.0873774
526.471	0.0873092
528.4	0.087434
530.328	0.0876451
532.257	0.0878854
534.185	0.0878767
536.114	0.0876834
538.042	0.0876885
539.971	0.0881324
541.899	0.0881896
543.827	0.0882853
545.756	0.0882131
547.684	0.0883941
549.613	0.0888043
551.541	0.0893592
553.47	0.0891448
555.398	0.0890626
557.327	0.089336
559.255	0.0898429
561.184	0.0901642
563.112	0.0902854
565.041	0.0902503
566.969	0.0903831
568.898	0.0903947
570.826	0.0905482
572.755	0.0909831
574.683	0.0914915
576.611	0.0917333
578.54	0.0920416
580.468	0.0926367
582.397	0.0935148
584.325	0.0938991
586.254	0.0941989
588.182	0.0940418
590.111	0.0942309
592.039	0.0947972
593.968	0.0953472
595.896	0.09544
597.824	0.0958063
599.753	0.0962485
601.682	0.0966002
603.61	0.0970066
605.538	0.097476
607.467	0.0975869
609.395	0.0981883
611.324	0.0988077
613.252	0.0992085
615.181	0.0995263
617.109	0.100016
619.038	0.100326
620.966	0.100307
622.894	0.100225
624.823	0.100232
626.751	0.100927
628.68	0.102076
630.608	0.102617
632.537	0.102817
634.465	0.103104
636.394	0.103608
638.322	0.103642
640.251	0.103523
642.179	0.103385
644.108	0.10377
646.036	0.104234
647.965	0.104201
649.893	0.104063
651.822	0.104455
653.75	0.104772
655.678	0.104976
657.607	0.105344
659.535	0.105882
661.464	0.106134
663.392	0.106198
665.321	0.106321
667.249	0.107002
669.178	0.107087
671.106	0.107219
673.035	0.107362
674.963	0.107369
676.892	0.107531
678.82	0.108415
680.749	0.108438
682.677	0.108405
684.606	0.108548
686.534	0.109442
688.462	0.110148
690.391	0.11094
692.319	0.111292
694.248	0.112004
696.176	0.112705
698.105	0.111843
700.033	0.10892
