Measurement: Infrared, Infrared Data Processed
Mineral: Chalcophanite
Rruff sample: R050451
Ideal chemistry: Zn^2+^Mn^4+^_3_O_7_3H_2_O
Locality: Morenci mine, Morenci, Greenlee County, Arizona, USA
Source: University of Arizona Mineral Museum
Description: A mass of small black hexagonal plates, not homogeneous
Measured chemistry: (Zn_0.60_Fe^2+^_0.20_Cu_0.12_Fe^3+^_0.08_)_Σ=1_(Mn^4+^_2.92_Fe^3+^_0.08_)_Σ=3_O_7_·3H_2_O ; = bright phase. The gray phase is jacobsite (Mn_0.65_Zn_0.25_Cu_0.09_)_Σ=1_(Fe^3+^_1.58_Mn^3+^_0.42_)_Σ=2_O_4_; dark phase: K-feldspar
x	intensity
395.336	0.0895401
404.978	0.0932385
414.62	0.0936941
424.263	0.0961938
433.905	0.0960989
443.547	0.0914007
453.19	0.0835952
462.832	0.0776639
472.474	0.0816184
482.117	0.0735644
491.759	0.0802867
501.401	0.0831693
511.044	0.0780086
520.686	0.0746939
530.328	0.0808112
539.971	0.0795808
549.613	0.0737671
559.255	0.0688935
568.898	0.0656134
578.54	0.0613983
588.182	0.0583118
597.825	0.0537073
607.467	0.0496164
617.109	0.0510191
626.752	0.049394
636.394	0.0467796
646.036	0.0459401
655.679	0.0442358
665.321	0.0430722
674.963	0.0392854
684.606	0.0341874
694.248	0.0293512
703.89	0.0260357
713.533	0.0243159
723.175	0.0237347
732.817	0.0229192
742.46	0.0215809
752.102	0.0215154
761.744	0.0220468
771.387	0.0237892
781.029	0.0247411
790.671	0.0251626
800.314	0.0243833
809.956	0.0219667
819.598	0.0210071
829.241	0.0206405
838.883	0.0212875
848.525	0.0225977
858.168	0.0253517
867.81	0.0278789
877.452	0.0304958
887.095	0.0312318
896.737	0.0302089
906.379	0.0290944
916.022	0.0281914
925.664	0.0285635
935.306	0.0297987
944.949	0.0321808
954.591	0.0355661
964.233	0.0393832
973.876	0.0432323
983.518	0.0473944
993.16	0.0517492
1002.8	0.0558975
1012.45	0.0596449
1022.09	0.0606737
1031.73	0.060517
1041.37	0.058892
1051.01	0.0549929
1060.66	0.0480177
1070.3	0.040287
1079.94	0.0358623
1089.58	0.0338792
1099.23	0.0332245
1108.87	0.033156
1118.51	0.0328772
1128.15	0.0325468
1137.8	0.0306355
1147.44	0.0273684
1157.08	0.023101
1166.72	0.0191633
1176.37	0.0160959
1186.01	0.0134867
1195.65	0.0119409
1205.29	0.0104617
1214.93	0.00946728
1224.58	0.00910545
1234.22	0.00874426
1243.86	0.00897354
1253.5	0.00874969
1263.15	0.0088096
1272.79	0.00939474
1282.43	0.0105387
1292.07	0.0103247
1301.71	0.0100592
1311.36	0.0101358
1321	0.0100435
1330.64	0.00997086
1340.28	0.0102399
1349.93	0.0103839
1359.57	0.0106824
1369.21	0.010796
1378.85	0.0111929
1388.5	0.0116856
1398.14	0.0117143
1407.78	0.012135
1417.42	0.0124526
1427.07	0.0124358
1436.71	0.0130186
1446.35	0.0125538
1455.99	0.0130624
1465.63	0.0126646
1475.28	0.0123215
1484.92	0.01236
1494.56	0.0126177
1504.2	0.0129665
1513.85	0.0130345
1523.49	0.0134209
1533.13	0.0136447
1542.77	0.0141452
1552.42	0.0143726
1562.06	0.0145412
1571.7	0.0148593
1581.34	0.0152613
1590.98	0.0153269
1600.63	0.015772
1610.27	0.0162677
1619.91	0.0167139
1629.55	0.0168766
1639.2	0.0165053
1648.84	0.0161477
1658.48	0.0152697
1668.12	0.0147243
1677.77	0.0140241
1687.41	0.0137644
1697.05	0.0138724
1706.69	0.0141724
1716.34	0.013802
1725.98	0.0131574
1735.62	0.0133555
1745.26	0.0129329
1754.9	0.0128566
1764.55	0.0132331
1774.19	0.0130749
1783.83	0.0131464
1793.47	0.0132965
1803.12	0.0133055
1812.76	0.0132214
1822.4	0.0133643
1832.04	0.0133959
1841.69	0.0136139
1851.33	0.0137986
1860.97	0.0136503
1870.61	0.0137192
1880.26	0.0139259
1889.9	0.0136924
1899.54	0.0141439
1909.18	0.0138543
1918.82	0.0143221
1928.47	0.0146431
1938.11	0.0146753
1947.75	0.0140637
1957.39	0.0146119
1967.04	0.0137554
1976.68	0.0142338
1986.32	0.0151804
1995.96	0.0141431
2005.61	0.0136867
2015.25	0.0145696
2024.89	0.0136606
2034.53	0.0138903
2044.17	0.0131235
2053.82	0.0145865
2063.46	0.0144812
2073.1	0.0142518
2082.74	0.0141066
2092.39	0.0144743
2102.03	0.0146814
2111.67	0.0140675
2121.31	0.0148425
2130.96	0.0163506
2140.6	0.0160367
2150.24	0.0155913
2159.88	0.0144296
2169.53	0.0154372
2179.17	0.0153408
2188.81	0.015381
2198.45	0.0164089
2208.09	0.0154236
2217.74	0.0165191
2227.38	0.0167312
2237.02	0.0175508
2246.66	0.0164023
2256.31	0.0161512
2265.95	0.016283
2275.59	0.0169772
2285.23	0.0168028
2294.88	0.0175136
2304.52	0.0170812
2314.16	0.0172619
2323.8	0.0170404
2333.45	0.0180418
2343.09	0.0184338
2352.73	0.0181551
2362.37	0.019166
2372.01	0.0187658
2381.66	0.0181867
2391.3	0.0184277
2400.94	0.0185077
2410.58	0.018549
2420.23	0.0188183
2429.87	0.0191314
2439.51	0.0190469
2449.15	0.0186268
2458.8	0.0193297
2468.44	0.0202403
2478.08	0.019537
2487.72	0.019891
2497.36	0.0200163
2507.01	0.0198525
2516.65	0.0201661
2526.29	0.0204023
2535.93	0.020039
2545.58	0.0203808
2555.22	0.02043
2564.86	0.0204724
2574.5	0.0206483
2584.14	0.0209883
2593.79	0.0205476
2603.43	0.0215109
2613.07	0.0214315
2622.72	0.0217543
2632.36	0.0215262
2642	0.0217953
2651.64	0.0223203
2661.28	0.0222499
2670.93	0.0225016
2680.57	0.0228384
2690.21	0.0226833
2699.85	0.0229257
2709.5	0.0234338
2719.14	0.0234165
2728.78	0.0236288
2738.42	0.0237923
2748.07	0.0244036
2757.71	0.0244038
2767.35	0.024553
2776.99	0.0249087
2786.63	0.0253346
2796.28	0.0257735
2805.92	0.0257227
2815.56	0.0260775
2825.2	0.0264224
2834.85	0.027039
2844.49	0.0274154
2854.13	0.0281376
2863.77	0.028232
2873.41	0.0283885
2883.06	0.0281186
2892.7	0.0286744
2902.34	0.029554
2911.99	0.0300002
2921.63	0.031432
2931.27	0.0308917
2940.91	0.0300271
2950.55	0.0310541
2960.2	0.0305405
2969.84	0.0302728
2979.48	0.0300828
2989.12	0.0301675
2998.77	0.0311966
3008.41	0.0303523
3018.05	0.0320554
3027.69	0.0314989
3037.34	0.0326635
3046.98	0.0323823
3056.62	0.0331255
3066.26	0.0332196
3075.9	0.0335707
3085.55	0.0340288
3095.19	0.0347671
3104.83	0.0353206
3114.47	0.0350893
3124.12	0.0362423
3133.76	0.0362254
3143.4	0.0364457
3153.04	0.0369334
3162.68	0.0374107
3172.33	0.0369438
3181.97	0.0375985
3191.61	0.0366451
3201.26	0.037503
3210.9	0.0376341
3220.54	0.0378012
3230.18	0.0370233
3239.82	0.0371366
3249.47	0.0383824
3259.11	0.0377061
3268.75	0.038074
3278.39	0.0386583
3288.04	0.0390636
3297.68	0.0395998
3307.32	0.0391101
3316.96	0.0388459
3326.61	0.0388482
3336.25	0.0375302
3345.89	0.0378736
3355.53	0.0371228
3365.17	0.0378407
3374.82	0.039051
3384.46	0.0387689
3394.1	0.0383713
3403.74	0.0364697
3413.39	0.0351998
3423.03	0.0326564
3432.67	0.0311952
3442.31	0.0301943
3451.95	0.0291576
3461.6	0.0270492
3471.24	0.0268479
3480.88	0.0245061
3490.53	0.0246254
3500.17	0.0239984
3509.81	0.0240044
3519.45	0.0222392
3529.09	0.0239164
3538.74	0.0214
3548.38	0.0218786
3558.02	0.0217026
3567.66	0.021019
3577.31	0.0201404
3586.95	0.0209906
3596.59	0.0214473
3606.23	0.0198857
3615.88	0.0192491
3625.52	0.0193884
3635.16	0.0191716
3644.8	0.0193428
3654.44	0.0178331
3664.09	0.0181767
3673.73	0.0188418
3683.37	0.0185281
3693.01	0.0165807
3702.66	0.0182542
3712.3	0.0183468
3721.94	0.0176856
3731.58	0.0189963
3741.22	0.0192011
3750.87	0.0196628
3760.51	0.0189494
3770.15	0.0189126
3779.8	0.0184253
3789.44	0.0184002
3799.08	0.0187617
3808.72	0.0186823
3818.36	0.0186215
3828.01	0.0190411
3837.65	0.0202067
3847.29	0.0192432
3856.93	0.0199764
3866.58	0.0185963
3876.22	0.0191628
3885.86	0.0197768
3895.5	0.0191814
3905.14	0.0190808
3914.79	0.0193167
3924.43	0.0197672
3934.07	0.0194106
3943.71	0.020629
3953.36	0.0199081
3963	0.0199787
3972.64	0.02004
3982.28	0.0188446
3991.93	0.0196482
