Measurement: Infrared, Infrared Data Processed
Mineral: Chlorargyrite
Rruff sample: R050360
Ideal chemistry: AgCl
Locality: Broken Hill, New South Wales, Australia
Source: University of Arizona Mineral Museum
Description: Yellowish-gray colloidal aggregate
x	intensity
399.193	0.0972664
408.835	0.0999936
418.477	0.106033
428.12	0.113413
437.762	0.116837
447.404	0.116423
457.047	0.120595
466.689	0.129853
476.331	0.122302
485.974	0.119573
495.616	0.124068
505.258	0.128347
514.901	0.13515
524.543	0.142583
534.185	0.148009
543.828	0.144916
553.47	0.143845
563.112	0.143378
572.755	0.144142
582.397	0.146424
592.039	0.147842
601.682	0.149238
611.324	0.151679
620.966	0.153815
630.609	0.156455
640.251	0.159131
649.893	0.161034
659.536	0.164614
669.178	0.167634
678.82	0.170333
688.463	0.172979
698.105	0.170734
707.747	0.167267
717.39	0.167229
727.032	0.170546
736.674	0.17445
746.317	0.178756
755.959	0.179496
765.601	0.180755
775.244	0.182833
784.886	0.185209
794.528	0.187165
804.171	0.188931
813.813	0.191487
823.455	0.193949
833.098	0.197196
842.74	0.200509
852.382	0.203823
862.025	0.207472
871.667	0.211632
881.309	0.214794
890.952	0.218474
900.594	0.225605
910.236	0.231596
919.879	0.228738
929.521	0.229752
939.163	0.23269
948.806	0.233711
958.448	0.236907
968.09	0.241353
977.733	0.247665
987.375	0.255383
997.017	0.263803
1006.66	0.271838
1016.3	0.267112
1025.94	0.269996
1035.59	0.266561
1045.23	0.259464
1054.87	0.25491
1064.51	0.255919
1074.16	0.258559
1083.8	0.259966
1093.44	0.258231
1103.08	0.253109
1112.72	0.245923
1122.37	0.241106
1132.01	0.240745
1141.65	0.243146
1151.3	0.245345
1160.94	0.246344
1170.58	0.247094
1180.22	0.249752
1189.86	0.25091
1199.51	0.252754
1209.15	0.254762
1218.79	0.256523
1228.43	0.258844
1238.08	0.261216
1247.72	0.262426
1257.36	0.263548
1267	0.264555
1276.64	0.26671
1286.29	0.268589
1295.93	0.271122
1305.57	0.272766
1315.21	0.274658
1324.86	0.276734
1334.5	0.279584
1344.14	0.281318
1353.78	0.283897
1363.43	0.287576
1373.07	0.289756
1382.71	0.292235
1392.35	0.294573
1401.99	0.297612
1411.64	0.301005
1421.28	0.303177
1430.92	0.303934
1440.57	0.30517
1450.21	0.306843
1459.85	0.307921
1469.49	0.306705
1479.13	0.307817
1488.78	0.308973
1498.42	0.311102
1508.06	0.313465
1517.7	0.313715
1527.35	0.314692
1536.99	0.31605
1546.63	0.318265
1556.27	0.320221
1565.91	0.321386
1575.56	0.32435
1585.2	0.325468
1594.84	0.328147
1604.48	0.330724
1614.13	0.333705
1623.77	0.337072
1633.41	0.339645
1643.05	0.341225
1652.7	0.343262
1662.34	0.342406
1671.98	0.342597
1681.62	0.343028
1691.27	0.343517
1700.91	0.345639
1710.55	0.347049
1720.19	0.348314
1729.84	0.350851
1739.48	0.352165
1749.12	0.35041
1758.76	0.350952
1768.4	0.352687
1778.05	0.3531
1787.69	0.354703
1797.33	0.356098
1806.97	0.356772
1816.62	0.358446
1826.26	0.360253
1835.9	0.362473
1845.54	0.362171
1855.18	0.364489
1864.83	0.36527
1874.47	0.366978
1884.11	0.369808
1893.75	0.368067
1903.4	0.371567
1913.04	0.371784
1922.68	0.371641
1932.32	0.373781
1941.97	0.373317
1951.61	0.373435
1961.25	0.368787
1970.89	0.373138
1980.54	0.37185
1990.18	0.375046
1999.82	0.37572
2009.46	0.374188
2019.11	0.373174
2028.75	0.37663
2038.39	0.380704
2048.03	0.385675
2057.67	0.391104
2067.32	0.392328
2076.96	0.394995
2086.6	0.39908
2096.24	0.397592
2105.89	0.403241
2115.53	0.40425
2125.17	0.405629
2134.81	0.40036
2144.45	0.395191
2154.1	0.392478
2163.74	0.397053
2173.38	0.403372
2183.02	0.404503
2192.67	0.411289
2202.31	0.414312
2211.95	0.415693
2221.59	0.415756
2231.24	0.422247
2240.88	0.424428
2250.52	0.423235
2260.16	0.426684
2269.8	0.432114
2279.45	0.432161
2289.09	0.434629
2298.73	0.436596
2308.38	0.439605
2318.02	0.442724
2327.66	0.444241
2337.3	0.447413
2346.94	0.447708
2356.59	0.449636
2366.23	0.450605
2375.87	0.452164
2385.51	0.449903
2395.16	0.453608
2404.8	0.454428
2414.44	0.454761
2424.08	0.456266
2433.72	0.457236
2443.37	0.461439
2453.01	0.463379
2462.65	0.464923
2472.29	0.467196
2481.94	0.469236
2491.58	0.469772
2501.22	0.473031
2510.86	0.472031
2520.51	0.472035
2530.15	0.475038
2539.79	0.479889
2549.43	0.4802
2559.07	0.481061
2568.72	0.482081
2578.36	0.483669
2588	0.485379
2597.64	0.487369
2607.29	0.490004
2616.93	0.49236
2626.57	0.494612
2636.21	0.494889
2645.86	0.497358
2655.5	0.500213
2665.14	0.500315
2674.78	0.501787
2684.43	0.504574
2694.07	0.50478
2703.71	0.507763
2713.35	0.510153
2722.99	0.512277
2732.64	0.513179
2742.28	0.514942
2751.92	0.517467
2761.56	0.518309
2771.21	0.520531
2780.85	0.522586
2790.49	0.52453
2800.13	0.527984
2809.78	0.529104
2819.42	0.529993
2829.06	0.530757
2838.7	0.537189
2848.34	0.54021
2857.99	0.5389
2867.63	0.540398
2877.27	0.543514
2886.91	0.546676
2896.56	0.549098
2906.2	0.553586
2915.84	0.55704
2925.48	0.55798
2935.13	0.555835
2944.77	0.552651
2954.41	0.554347
2964.05	0.555166
2973.7	0.555507
2983.34	0.555632
2992.98	0.554914
3002.62	0.556379
3012.26	0.55947
3021.91	0.559183
3031.55	0.561911
3041.19	0.565573
3050.83	0.567814
3060.48	0.567223
3070.12	0.571394
3079.76	0.571864
3089.4	0.570646
3099.05	0.574805
3108.69	0.576592
3118.33	0.57809
3127.97	0.579168
3137.61	0.578874
3147.26	0.580658
3156.9	0.587617
3166.54	0.586728
3176.18	0.591185
3185.83	0.593261
3195.47	0.594789
3205.11	0.593544
3214.75	0.595226
3224.4	0.601729
3234.04	0.600689
3243.68	0.605251
3253.32	0.602186
3262.97	0.604501
3272.61	0.607147
3282.25	0.609348
3291.89	0.612178
3301.53	0.614226
3311.18	0.613849
3320.82	0.61663
3330.46	0.618326
3340.1	0.621424
3349.75	0.622208
3359.39	0.624585
3369.03	0.621752
3378.67	0.624544
3388.32	0.626324
3397.96	0.62762
3407.6	0.630304
3417.24	0.630711
3426.89	0.634577
3436.53	0.632277
3446.17	0.638752
3455.81	0.64073
3465.45	0.638614
3475.1	0.635342
3484.74	0.641608
3494.38	0.644426
3504.02	0.645114
3513.67	0.640694
3523.31	0.640964
3532.95	0.6456
3542.59	0.649348
3552.24	0.64958
3561.88	0.646539
3571.52	0.649055
3581.16	0.651067
3590.8	0.657652
3600.45	0.656667
3610.09	0.656196
3619.73	0.666165
3629.37	0.661281
3639.02	0.661335
3648.66	0.66443
3658.3	0.665538
3667.94	0.666788
3677.59	0.670603
3687.23	0.687198
3696.87	0.675627
3706.51	0.660506
3716.16	0.647584
3725.8	0.656545
3735.44	0.655348
3745.08	0.660973
3754.72	0.661902
3764.37	0.659034
3774.01	0.662337
3783.65	0.666857
3793.29	0.668162
3802.94	0.671409
3812.58	0.671329
3822.22	0.677667
3831.86	0.675629
3841.51	0.679289
3851.15	0.679613
3860.79	0.682407
3870.43	0.688441
3880.07	0.684148
3889.72	0.684291
3899.36	0.690758
3909	0.688484
3918.64	0.687354
3928.29	0.697714
3937.93	0.696937
3947.57	0.695911
3957.21	0.691651
3966.86	0.699832
3976.5	0.697167
3986.14	0.695927
3995.78	0.709099
