Measurement: Infrared, Infrared Data Processed
Mineral: Clinohumite
Rruff sample: R050183
Ideal chemistry: Mg_9_(SiO_4_)_4_F_2_
Locality: Pein Pyit, Mogok, Burma
Source: Marcus Origlieri
Description: Yellowish-green blebs in calcite, associated with red spinel, R050184
Measured chemistry: (Mg_8.85_Ti_0.07_[box]_0.07_Fe_0.01_)_Σ=9_(Si_1.00_O_4_)_4_(F_1.00_(OH)_1.00_)_Σ=2_
x	intensity
374.123	0.235905
383.765	0.246905
393.407	0.270305
403.05	0.24234
412.692	0.246118
422.334	0.212341
431.976	0.190667
441.619	0.171287
451.261	0.145835
460.904	0.136977
470.546	0.13727
480.188	0.140084
489.83	0.159819
499.473	0.145197
509.115	0.111078
518.758	0.114903
528.4	0.144947
538.042	0.127805
547.684	0.095502
557.327	0.0801628
566.969	0.0578824
576.611	0.0404395
586.254	0.03817
595.896	0.0526318
605.538	0.0886081
615.181	0.10283
624.823	0.0835993
634.466	0.059007
644.108	0.0400495
653.75	0.0292882
663.393	0.0247684
673.035	0.0233852
682.677	0.0222971
692.319	0.0228341
701.962	0.0238151
711.604	0.0264114
721.246	0.0297985
730.889	0.0394176
740.531	0.067909
750.173	0.0695287
759.816	0.0629314
769.458	0.0471883
779.101	0.0389021
788.743	0.0434585
798.385	0.0554275
808.028	0.0778779
817.67	0.0997652
827.312	0.130184
836.955	0.173494
846.597	0.191997
856.239	0.185536
865.881	0.218585
875.524	0.262444
885.166	0.267889
894.808	0.239593
904.451	0.207358
914.093	0.177922
923.736	0.154206
933.378	0.133173
943.02	0.126257
952.663	0.123697
962.305	0.126204
971.947	0.102522
981.59	0.112104
991.232	0.107895
1000.87	0.0965956
1010.52	0.087739
1020.16	0.0744006
1029.8	0.0586592
1039.44	0.0434605
1049.09	0.0300917
1058.73	0.0204045
1068.37	0.0139097
1078.01	0.010858
1087.65	0.00856576
1097.3	0.00690337
1106.94	0.00592904
1116.58	0.00519493
1126.22	0.00485379
1135.87	0.00489705
1145.51	0.00485073
1155.15	0.00596443
1164.79	0.00698792
1174.44	0.00639151
1184.08	0.00508993
1193.72	0.00410621
1203.36	0.00444656
1213.01	0.00464914
1222.65	0.00409887
1232.29	0.00395684
1241.93	0.0043001
1251.58	0.00466126
1261.22	0.00723994
1270.86	0.00674675
1280.5	0.00560693
1290.14	0.00463764
1299.79	0.00459888
1309.43	0.00597973
1319.07	0.00517808
1328.71	0.00518061
1338.36	0.00526873
1348	0.0052851
1357.64	0.00570418
1367.28	0.00631073
1376.92	0.00692285
1386.57	0.0080123
1396.21	0.00940759
1405.85	0.0108551
1415.49	0.0126663
1425.14	0.0143306
1434.78	0.0156821
1444.42	0.0161566
1454.06	0.0165506
1463.71	0.0162872
1473.35	0.0159276
1482.99	0.0144872
1492.63	0.0134384
1502.28	0.0125519
1511.92	0.0114974
1521.56	0.0106101
1531.2	0.00910293
1540.85	0.00887823
1550.49	0.00771981
1560.13	0.00836397
1569.77	0.00743517
1579.41	0.00761259
1589.06	0.00729862
1598.7	0.00759757
1608.34	0.00743686
1617.98	0.00779405
1627.63	0.00723802
1637.27	0.00714307
1646.91	0.00716678
1656.55	0.006225
1666.19	0.00590526
1675.84	0.00618244
1685.48	0.00643382
1695.12	0.00653154
1704.77	0.00575322
1714.41	0.00580037
1724.05	0.00533033
1733.69	0.00603051
1743.33	0.00497724
1752.98	0.00500776
1762.62	0.00498039
1772.26	0.00586793
1781.9	0.00559453
1791.55	0.0057261
1801.19	0.00565286
1810.83	0.00556002
1820.47	0.00582573
1830.12	0.00569398
1839.76	0.00557916
1849.4	0.00554034
1859.04	0.00622031
1868.68	0.00659838
1878.33	0.00659817
1887.97	0.00562521
1897.61	0.00551562
1907.25	0.00557043
1916.9	0.0061396
1926.54	0.00494243
1936.18	0.00583391
1945.82	0.0060145
1955.46	0.00457264
1965.11	0.00458655
1974.75	0.00385228
1984.39	0.00583849
1994.04	0.00445036
2003.68	0.00232948
2013.32	0.00423019
2022.96	0.0041808
2032.6	0.00404524
2042.25	0.00446974
2051.89	0.00712575
2061.53	0.00751171
2071.17	0.00754989
2080.82	0.00734589
2090.46	0.00652296
2100.1	0.0083847
2109.74	0.0080909
2119.39	0.00726955
2129.03	0.00493204
2138.67	0.00686577
2148.31	0.00689937
2157.95	0.00517224
2167.6	0.00833125
2177.24	0.00626928
2186.88	0.00776095
2196.52	0.00693676
2206.17	0.00705498
2215.81	0.00707324
2225.45	0.00666831
2235.09	0.00665552
2244.74	0.00697244
2254.38	0.00660705
2264.02	0.00580769
2273.66	0.00740197
2283.3	0.00760954
2292.95	0.00763914
2302.59	0.00701753
2312.23	0.0074698
2321.87	0.00856895
2331.52	0.00778726
2341.16	0.00853224
2350.8	0.00701214
2360.44	0.00772098
2370.09	0.00768257
2379.73	0.00644451
2389.37	0.00682479
2399.01	0.00665568
2408.66	0.00643644
2418.3	0.00636281
2427.94	0.006349
2437.58	0.00670481
2447.22	0.00615881
2456.87	0.006178
2466.51	0.00628716
2476.15	0.00608489
2485.79	0.00672164
2495.44	0.00611358
2505.08	0.006398
2514.72	0.00616945
2524.36	0.005409
2534.01	0.00571211
2543.65	0.00537893
2553.29	0.00527861
2562.93	0.00621147
2572.57	0.0058712
2582.22	0.00554458
2591.86	0.00526378
2601.5	0.00536303
2611.14	0.00560939
2620.79	0.00614745
2630.43	0.00560527
2640.07	0.00570247
2649.71	0.00574042
2659.36	0.00532658
2669	0.00516138
2678.64	0.00492945
2688.28	0.00455189
2697.93	0.00440229
2707.57	0.00502098
2717.21	0.00486518
2726.85	0.004391
2736.49	0.00494559
2746.14	0.00507203
2755.78	0.00554897
2765.42	0.0052375
2775.06	0.00488336
2784.71	0.00501521
2794.35	0.00485186
2803.99	0.00506655
2813.63	0.00482581
2823.28	0.00501677
2832.92	0.00544933
2842.56	0.00538246
2852.2	0.00537015
2861.84	0.00563795
2871.49	0.00494997
2881.13	0.00520076
2890.77	0.00503399
2900.41	0.0051355
2910.06	0.00479644
2919.7	0.00460958
2929.34	0.00511723
2938.98	0.00456624
2948.62	0.00547507
2958.27	0.00428864
2967.91	0.00450401
2977.55	0.00448092
2987.2	0.00375233
2996.84	0.00336964
3006.48	0.00323607
3016.12	0.00270757
3025.76	0.00384572
3035.41	0.00348037
3045.05	0.00435927
3054.69	0.00359575
3064.33	0.00398588
3073.98	0.00339981
3083.62	0.00367969
3093.26	0.00412662
3102.9	0.00354673
3112.55	0.00430701
3122.19	0.0034047
3131.83	0.00426593
3141.47	0.00475654
3151.11	0.00412536
3160.76	0.00438097
3170.4	0.00336449
3180.04	0.00546452
3189.68	0.00380679
3199.33	0.0046648
3208.97	0.00398825
3218.61	0.00366199
3228.25	0.00416048
3237.9	0.00291945
3247.54	0.00391781
3257.18	0.00432462
3266.82	0.00443504
3276.47	0.00373021
3286.11	0.00378464
3295.75	0.00368647
3305.39	0.00392643
3315.03	0.00368459
3324.68	0.00349917
3334.32	0.00377403
3343.96	0.0040078
3353.6	0.00396588
3363.25	0.00486098
3372.89	0.00562997
3382.53	0.006871
3392.17	0.00677372
3401.82	0.00476112
3411.46	0.00425646
3421.1	0.00333217
3430.74	0.00143606
3440.39	0.00237832
3450.03	0.00207485
3459.67	0.00174194
3469.31	0.00142344
3478.95	0.00184998
3488.6	0.00120506
3498.24	0.000926525
3507.88	0.000768359
3517.52	0.000675555
3527.17	0.000883202
3536.81	0.000577498
3546.45	0.00316893
3556.09	0.0107557
3565.74	0.0138334
3575.38	0.00718073
3585.02	9.99024e-05
3594.66	-0.00226399
3604.3	-0.0025132
3613.95	-0.00355646
3623.59	-0.00353528
3633.23	-0.00446857
3642.87	-0.00448356
3652.52	-0.00441456
3662.16	-0.0029781
3671.8	-0.00355876
3681.44	-0.00526067
3691.09	-0.00494407
3700.73	-0.00457188
3710.37	-0.004292
3720.01	-0.00632828
3729.66	-0.00511351
3739.3	-0.00570933
3748.94	-0.00359449
3758.58	-0.00561455
3768.22	-0.00537896
3777.87	-0.00389248
3787.51	-0.00647735
3797.15	-0.00560145
3806.79	-0.00606199
3816.44	-0.00472869
3826.08	-0.00611367
3835.72	-0.0056914
3845.36	-0.00600027
3855.01	-0.00398649
3864.65	-0.00719385
3874.29	-0.00754117
3883.93	-0.00733508
3893.57	-0.00898241
3903.22	-0.00734407
3912.86	-0.00851678
3922.5	-0.00793671
3932.14	-0.00673496
3941.79	-0.00786055
3951.43	-0.00780327
3961.07	-0.00781683
3970.71	-0.00746478
3980.36	-0.00646084
3990	-0.00850077
3999.64	-0.00905348
