Measurement: Infrared, Infrared Data Processed
Mineral: Clinochlore
Rruff sample: R060725
Ideal chemistry: Mg_5_Al(AlSi_3_O_10_)(OH)_8_
Locality: Crestmore Quarry, Riverside, California, USA
Source: Bob Jenkins
Description: Green transparent books of mica
Measured chemistry: (Mg_4.65_Al_1.12_Fe^2+^_0.17_[box]_0.06_)_Σ=6_(Si_3.00_Al_1.00_)_Σ=4_O_10_(OH)_8_
x	intensity
399.193	0
408.835	0.193173
418.477	0.201739
428.12	0.216089
437.762	0.220312
447.404	0.208482
457.047	0.199458
466.689	0.171587
476.331	0.141742
485.974	0.122614
495.616	0.115573
505.258	0.104523
514.901	0.092269
524.543	0.0797126
534.185	0.072619
543.828	0.0720953
553.47	0.0769574
563.112	0.0735934
572.755	0.0764084
582.397	0.0890781
592.039	0.10526
601.682	0.123463
611.324	0.140974
620.966	0.152265
630.609	0.165542
640.251	0.186743
649.893	0.191993
659.536	0.175549
669.178	0.150299
678.82	0.132975
688.463	0.121983
698.105	0.113335
707.747	0.110582
717.39	0.108186
727.032	0.107768
736.674	0.106504
746.317	0.106393
755.959	0.106955
765.601	0.102302
775.244	0.0957022
784.886	0.088881
794.528	0.0840199
804.171	0.0812459
813.813	0.0812223
823.455	0.080083
833.098	0.0733176
842.74	0.065827
852.382	0.0639869
862.025	0.0657867
871.667	0.0745738
881.309	0.0722749
890.952	0.0704133
900.594	0.0816484
910.236	0.0980336
919.879	0.118781
929.521	0.148239
939.163	0.183182
948.806	0.212931
958.448	0.218745
968.09	0.212593
977.733	0.207224
987.375	0.199005
997.017	0.181887
1006.66	0.161653
1016.3	0.133573
1025.94	0.103726
1035.59	0.0807333
1045.23	0.0684547
1054.87	0.0586083
1064.51	0.0489405
1074.16	0.0392678
1083.8	0.0333662
1093.44	0.0228723
1103.08	0.0158378
1112.72	0.012767
1122.37	0.011211
1132.01	0.00970279
1141.65	0.00936648
1151.3	0.00841935
1160.94	0.00797914
1170.58	0.00749239
1180.22	0.00722592
1189.86	0.00685373
1199.51	0.00666134
1209.15	0.00654247
1218.79	0.00611066
1228.43	0.00626738
1238.08	0.00620266
1247.72	0.00609402
1257.36	0.00601833
1267	0.00613375
1276.64	0.00676706
1286.29	0.00710454
1295.93	0.00772577
1305.57	0.00816698
1315.21	0.0085181
1324.86	0.0095213
1334.5	0.00989874
1344.14	0.0117717
1353.78	0.0132954
1363.43	0.0154966
1373.07	0.0185099
1382.71	0.0223207
1392.35	0.02744
1401.99	0.0322346
1411.64	0.0375902
1421.28	0.0408278
1430.92	0.0428386
1440.57	0.0423413
1450.21	0.0407504
1459.85	0.0377376
1469.49	0.0335677
1479.13	0.029827
1488.78	0.0250483
1498.42	0.0208541
1508.06	0.0171599
1517.7	0.0142354
1527.35	0.0116543
1536.99	0.00928462
1546.63	0.00920718
1556.27	0.00603496
1565.91	0.00763685
1575.56	0.00510623
1585.2	0.00669799
1594.84	0.0069342
1604.48	0.00671845
1614.13	0.00599478
1623.77	0.00640063
1633.41	0.00553374
1643.05	0.00658693
1652.7	0.00213512
1662.34	0.00545948
1671.98	0.00577464
1681.62	0.00462604
1691.27	0.00523549
1700.91	0.00450771
1710.55	0.0045004
1720.19	0.00454681
1729.84	0.00443044
1739.48	0.00231543
1749.12	0.00191986
1758.76	0.00376544
1768.4	0.00374287
1778.05	0.00401469
1787.69	0.00408361
1797.33	0.00479875
1806.97	0.00369626
1816.62	0.00387671
1826.26	0.00341215
1835.9	0.00358148
1845.54	0.0035347
1855.18	0.00245638
1864.83	0.00243808
1874.47	0.00288516
1884.11	0.00221322
1893.75	0.00130957
1903.4	0.00132398
1913.04	0.000770457
1922.68	0.000657245
1932.32	0.000413087
1941.97	-0.00101244
1951.61	-0.00199605
1961.25	-0.00169807
1970.89	-0.00326555
1980.54	-0.00245542
1990.18	0.000479097
1999.82	-0.0035999
2009.46	-0.00251571
2019.11	-0.00262224
2028.75	-0.00315729
2038.39	-0.000767201
2048.03	0.00164735
2057.67	0.0010567
2067.32	0.0008687
2076.96	0.000633634
2086.6	0.00252205
2096.24	0.00191204
2105.89	0.0029187
2115.53	0.00260208
2125.17	0.00195076
2134.81	0.00122019
2144.45	0.00175824
2154.1	-0.00245571
2163.74	0.00289314
2173.38	0.00310832
2183.02	0.00444659
2192.67	0.00452015
2202.31	0.0042514
2211.95	0.0055592
2221.59	0.00443528
2231.24	0.00370518
2240.88	0.00522192
2250.52	0.00378024
2260.16	0.00341611
2269.8	0.00464206
2279.45	0.00485631
2289.09	0.00490198
2298.73	0.00508423
2308.38	0.00375474
2318.02	0.00537378
2327.66	0.00489037
2337.3	0.00481657
2346.94	0.00453888
2356.59	0.00440805
2366.23	0.00495602
2375.87	0.00455454
2385.51	0.00456753
2395.16	0.00401249
2404.8	0.00455746
2414.44	0.00468043
2424.08	0.00566819
2433.72	0.00479422
2443.37	0.00562921
2453.01	0.00631802
2462.65	0.00539173
2472.29	0.00530228
2481.94	0.00571719
2491.58	0.00584024
2501.22	0.00584155
2510.86	0.00656992
2520.51	0.00566996
2530.15	0.0053908
2539.79	0.0051318
2549.43	0.00605099
2559.07	0.00526137
2568.72	0.00584883
2578.36	0.00554368
2588	0.00565157
2597.64	0.0059473
2607.29	0.00621331
2616.93	0.0057324
2626.57	0.0054738
2636.21	0.00719552
2645.86	0.00608268
2655.5	0.00634215
2665.14	0.00595462
2674.78	0.00570272
2684.43	0.00638619
2694.07	0.00641706
2703.71	0.00595751
2713.35	0.00731661
2722.99	0.00656269
2732.64	0.00727609
2742.28	0.00653477
2751.92	0.00699752
2761.56	0.006995
2771.21	0.00751501
2780.85	0.0076423
2790.49	0.00711685
2800.13	0.00780941
2809.78	0.00723071
2819.42	0.00776858
2829.06	0.00713943
2838.7	0.00848914
2848.34	0.00694254
2857.99	0.00688868
2867.63	0.00845933
2877.27	0.00962184
2886.91	0.00863085
2896.56	0.00969601
2906.2	0.00899975
2915.84	0.0102668
2925.48	0.00909701
2935.13	0.00973198
2944.77	0.0103117
2954.41	0.0105118
2964.05	0.010767
2973.7	0.00944283
2983.34	0.0111494
2992.98	0.0103224
3002.62	0.0102033
3012.26	0.0112946
3021.91	0.0110799
3031.55	0.0102897
3041.19	0.0133318
3050.83	0.0138989
3060.48	0.0133357
3070.12	0.0134653
3079.76	0.014082
3089.4	0.0134792
3099.05	0.0153875
3108.69	0.0163569
3118.33	0.0158172
3127.97	0.0184295
3137.61	0.017343
3147.26	0.0181127
3156.9	0.0202442
3166.54	0.021466
3176.18	0.0212249
3185.83	0.0214366
3195.47	0.0231747
3205.11	0.0245336
3214.75	0.0273149
3224.4	0.02763
3234.04	0.0282274
3243.68	0.0305353
3253.32	0.0311963
3262.97	0.0328067
3272.61	0.036901
3282.25	0.0383928
3291.89	0.0407466
3301.53	0.0444139
3311.18	0.0479448
3320.82	0.0491752
3330.46	0.0534075
3340.1	0.0569578
3349.75	0.0611323
3359.39	0.0649081
3369.03	0.0685739
3378.67	0.0705434
3388.32	0.0714601
3397.96	0.0727824
3407.6	0.0761739
3417.24	0.0764464
3426.89	0.0754063
3436.53	0.0718121
3446.17	0.0694536
3455.81	0.067484
3465.45	0.0627806
3475.1	0.0629262
3484.74	0.0611768
3494.38	0.0618842
3504.02	0.0648297
3513.67	0.0668993
3523.31	0.0680569
3532.95	0.0737903
3542.59	0.0750888
3552.24	0.0801507
3561.88	0.0798891
3571.52	0.0789395
3581.16	0.0753975
3590.8	0.0642956
3600.45	0.0577194
3610.09	0.0441195
3619.73	0.0338359
3629.37	0.0285279
3639.02	0.0255191
3648.66	0.0167867
3658.3	0.0186676
3667.94	0.0164349
3677.59	0.0185295
3687.23	0.012056
3696.87	0.00728302
3706.51	0.00698863
3716.16	0.0053885
3725.8	0.00666168
3735.44	0.00489084
3745.08	0.00770157
3754.72	0.00608468
3764.37	0.00497149
3774.01	0.00689439
3783.65	0.00721359
3793.29	0.00878237
3802.94	0.00632335
3812.58	0.00632295
3822.22	0.00716697
3831.86	0.00763967
3841.51	0.00923529
3851.15	0.00337754
3860.79	0.00800471
3870.43	0.00909842
3880.07	0.00903236
3889.72	0.0052543
3899.36	0.00998714
3909	0.00698869
3918.64	0.00797437
3928.29	0.00975144
3937.93	0.00925565
3947.57	0.00829184
3957.21	0.0099997
3966.86	0.00765003
3976.5	0.00874817
3986.14	0.0102756
3995.78	0.0113015
