Measurement: Infrared, Infrared Data Processed
Mineral: Colemanite
Rruff sample: R050102
Ideal chemistry: CaB_3_O_4_(OH)_3_H_2_O
Locality: Kramer deposit, Boron, Kern County, California, USA
Source: Rock Currier
Description: Colorless prismatic to tabular crystals
Measured chemistry: Ca_1.00_B_3.00_O_4_(OH)_3_Â·H_2_O ; trace amounts of Na; B assumed by stoichiometry and charge balance.
x	intensity
399.193	0
408.835	0.0928697
418.477	0.0991582
428.12	0.0945059
437.762	0.0887487
447.404	0.0828881
457.047	0.0820495
466.689	0.07784
476.331	0.0750667
485.974	0.0793918
495.616	0.0847185
505.258	0.0815756
514.901	0.0973197
524.543	0.0713065
534.185	0.0766642
543.828	0.0839123
553.47	0.0803283
563.112	0.0818022
572.755	0.1058
582.397	0.122853
592.039	0.0746781
601.682	0.0803243
611.324	0.0847896
620.966	0.0944269
630.609	0.0968707
640.251	0.0935109
649.893	0.091875
659.536	0.0970554
669.178	0.110614
678.82	0.103749
688.463	0.122219
698.105	0.123789
707.747	0.130896
717.39	0.147289
727.032	0.17259
736.674	0.145101
746.317	0.136228
755.959	0.167111
765.601	0.131464
775.244	0.0988319
784.886	0.131322
794.528	0.148033
804.171	0.17144
813.813	0.186021
823.455	0.173604
833.098	0.188973
842.74	0.212782
852.382	0.229721
862.025	0.235901
871.667	0.241109
881.309	0.250616
890.952	0.24827
900.594	0.239391
910.236	0.23996
919.879	0.239489
929.521	0.232226
939.163	0.213272
948.806	0.191599
958.448	0.163106
968.09	0.125913
977.733	0.0971927
987.375	0.0862189
997.017	0.0899555
1006.66	0.101458
1016.3	0.113206
1025.94	0.11817
1035.59	0.122494
1045.23	0.122208
1054.87	0.099935
1064.51	0.0882621
1074.16	0.0834725
1083.8	0.0712148
1093.44	0.0647568
1103.08	0.0703365
1112.72	0.0771626
1122.37	0.0785857
1132.01	0.0765887
1141.65	0.0744094
1151.3	0.0731467
1160.94	0.0705835
1170.58	0.057776
1180.22	0.0441329
1189.86	0.0389835
1199.51	0.0422019
1209.15	0.0546042
1218.79	0.0781278
1228.43	0.0993114
1238.08	0.0853355
1247.72	0.0791012
1257.36	0.0975616
1267	0.115368
1276.64	0.11867
1286.29	0.119356
1295.93	0.12218
1305.57	0.158238
1315.21	0.195084
1324.86	0.186213
1334.5	0.172067
1344.14	0.153451
1353.78	0.17126
1363.43	0.171274
1373.07	0.134129
1382.71	0.0996791
1392.35	0.0740288
1401.99	0.0537192
1411.64	0.0400129
1421.28	0.0352728
1430.92	0.0358951
1440.57	0.0295046
1450.21	0.0271114
1459.85	0.0286312
1469.49	0.0226065
1479.13	0.0149617
1488.78	0.0113517
1498.42	0.0099079
1508.06	0.00947105
1517.7	0.00893145
1527.35	0.00883462
1536.99	0.00918669
1546.63	0.00974212
1556.27	0.0104349
1565.91	0.0108131
1575.56	0.0114281
1585.2	0.0122557
1594.84	0.0132135
1604.48	0.0134955
1614.13	0.0131945
1623.77	0.0129658
1633.41	0.0124384
1643.05	0.0123657
1652.7	0.0126482
1662.34	0.0125776
1671.98	0.0124636
1681.62	0.0125684
1691.27	0.012206
1700.91	0.0113487
1710.55	0.0101881
1720.19	0.00918269
1729.84	0.00791459
1739.48	0.00657586
1749.12	0.00596605
1758.76	0.00551126
1768.4	0.0050165
1778.05	0.00521383
1787.69	0.00483829
1797.33	0.00496781
1806.97	0.00454554
1816.62	0.00446697
1826.26	0.00514903
1835.9	0.00464321
1845.54	0.00487053
1855.18	0.0041438
1864.83	0.00395348
1874.47	0.00423955
1884.11	0.00354463
1893.75	0.00394198
1903.4	0.00376758
1913.04	0.00381301
1922.68	0.00419546
1932.32	0.00292126
1941.97	0.00306909
1951.61	0.00306859
1961.25	0.00565422
1970.89	0.00330479
1980.54	0.00837045
1990.18	0.00534244
1999.82	0.00434053
2009.46	0.00481338
2019.11	0.00294984
2028.75	0.00398008
2038.39	0.00528683
2048.03	0.00540459
2057.67	0.00333695
2067.32	0.00370592
2076.96	0.00459277
2086.6	0.00504343
2096.24	0.00671235
2105.89	0.00659532
2115.53	0.00723714
2125.17	0.00643443
2134.81	0.00621519
2144.45	0.00436719
2154.1	0.00358165
2163.74	0.00632015
2173.38	0.00683177
2183.02	0.00833699
2192.67	0.00790124
2202.31	0.0054011
2211.95	0.00575718
2221.59	0.00808678
2231.24	0.00638063
2240.88	0.00683995
2250.52	0.0045462
2260.16	0.00724483
2269.8	0.00760814
2279.45	0.00779571
2289.09	0.00804703
2298.73	0.0085845
2308.38	0.00816332
2318.02	0.00889701
2327.66	0.00849666
2337.3	0.00842858
2346.94	0.00835183
2356.59	0.00928601
2366.23	0.00802778
2375.87	0.00896597
2385.51	0.00885416
2395.16	0.00973646
2404.8	0.0100706
2414.44	0.00935896
2424.08	0.0102469
2433.72	0.0107799
2443.37	0.0108885
2453.01	0.0103442
2462.65	0.0118131
2472.29	0.010536
2481.94	0.0119443
2491.58	0.0115151
2501.22	0.0117967
2510.86	0.0115979
2520.51	0.012291
2530.15	0.0120774
2539.79	0.011841
2549.43	0.0113612
2559.07	0.0120919
2568.72	0.0110197
2578.36	0.0123484
2588	0.0118628
2597.64	0.0120004
2607.29	0.0115871
2616.93	0.00987779
2626.57	0.0114528
2636.21	0.0106661
2645.86	0.0117127
2655.5	0.0114753
2665.14	0.0108352
2674.78	0.0116514
2684.43	0.0117417
2694.07	0.0125754
2703.71	0.0130919
2713.35	0.0129272
2722.99	0.0134368
2732.64	0.0139613
2742.28	0.0142133
2751.92	0.0152324
2761.56	0.015993
2771.21	0.016797
2780.85	0.0173262
2790.49	0.0180735
2800.13	0.0190226
2809.78	0.0202412
2819.42	0.0220118
2829.06	0.0220572
2838.7	0.0229738
2848.34	0.0231036
2857.99	0.0243776
2867.63	0.0248095
2877.27	0.0253783
2886.91	0.0273286
2896.56	0.0286364
2906.2	0.0310814
2915.84	0.0314984
2925.48	0.0321717
2935.13	0.0332108
2944.77	0.035407
2954.41	0.0362286
2964.05	0.0399254
2973.7	0.0408072
2983.34	0.0422172
2992.98	0.043784
3002.62	0.0460049
3012.26	0.0484576
3021.91	0.0510863
3031.55	0.0525253
3041.19	0.0548112
3050.83	0.0568623
3060.48	0.060384
3070.12	0.0631163
3079.76	0.066619
3089.4	0.0708078
3099.05	0.0734371
3108.69	0.0784333
3118.33	0.0817966
3127.97	0.0854921
3137.61	0.0877713
3147.26	0.0900927
3156.9	0.0912562
3166.54	0.0933528
3176.18	0.093654
3185.83	0.0939206
3195.47	0.0935031
3205.11	0.095428
3214.75	0.096488
3224.4	0.0963796
3234.04	0.0969398
3243.68	0.0936836
3253.32	0.0914878
3262.97	0.0897515
3272.61	0.0865382
3282.25	0.0847145
3291.89	0.082815
3301.53	0.0800103
3311.18	0.0765121
3320.82	0.0711464
3330.46	0.0670766
3340.1	0.0599809
3349.75	0.0538828
3359.39	0.0480715
3369.03	0.0434076
3378.67	0.0378038
3388.32	0.0344714
3397.96	0.0300543
3407.6	0.0288191
3417.24	0.0259665
3426.89	0.022584
3436.53	0.0216004
3446.17	0.0186092
3455.81	0.0192436
3465.45	0.0187017
3475.1	0.0169162
3484.74	0.0171832
3494.38	0.0183208
3504.02	0.0207781
3513.67	0.0212964
3523.31	0.0227049
3532.95	0.0211466
3542.59	0.0206313
3552.24	0.0179095
3561.88	0.0161576
3571.52	0.0179529
3581.16	0.0241474
3590.8	0.0402666
3600.45	0.0613152
3610.09	0.0376626
3619.73	0.0131367
3629.37	0.00537059
3639.02	0.00152532
3648.66	-6.46757e-05
3658.3	0.00105974
3667.94	0.0012318
3677.59	0.00163757
3687.23	0.000114714
3696.87	-3.93889e-05
3706.51	-0.000110283
3716.16	0.00262541
3725.8	0.000720225
3735.44	-0.00038476
3745.08	-1.51632e-05
3754.72	-0.00137121
3764.37	0.000185328
3774.01	0.00102525
3783.65	0.000411191
3793.29	-0.00097959
3802.94	-0.000199612
3812.58	-0.00147805
3822.22	-0.000950213
3831.86	-0.000159927
3841.51	0.00199928
3851.15	0.00123377
3860.79	0.00136996
3870.43	0.00124475
3880.07	-0.00043034
3889.72	0.000331465
3899.36	0.00176865
3909	-0.000998024
3918.64	0.000717278
3928.29	-0.000820107
3937.93	-0.000803723
3947.57	0.00056873
3957.21	0.000389098
3966.86	0.000446644
3976.5	0.00183997
3986.14	-0.000161163
3995.78	-0.00175663
