Measurement: Infrared, Infrared Data Processed
Mineral: Conichalcite
Rruff sample: R040167
Ideal chemistry: CaCu^2+^As^5+^O_4_(OH)
Locality: Ojuela mine, Mapimi, Durango, Mexico
Source: University of Arizona Mineral Museum
Description: Green druse
Measured chemistry: Ca_1.00_(Cu_0.70_Zn_0.30_)_Î£=1_(As_1.00_O_4_)(OH) ; OH estimated by difference and stoichiometry
x	intensity
399.193	0
408.835	0.110742
418.477	0.0984249
428.12	0.0878863
437.762	0.0781362
447.404	0.0717316
457.047	0.0691361
466.689	0.0630871
476.331	0.0478702
485.974	0.0365878
495.616	0.0313511
505.258	0.0313113
514.901	0.0391157
524.543	0.0489272
534.185	0.0486267
543.828	0.0419521
553.47	0.0508859
563.112	0.0695342
572.755	0.0632962
582.397	0.0397789
592.039	0.0290048
601.682	0.0230864
611.324	0.020894
620.966	0.0217534
630.609	0.0234973
640.251	0.0259227
649.893	0.028776
659.536	0.0323811
669.178	0.0377372
678.82	0.0442124
688.463	0.0503084
698.105	0.0594986
707.747	0.071149
717.39	0.0856599
727.032	0.102526
736.674	0.121767
746.317	0.142298
755.959	0.162482
765.601	0.177151
775.244	0.183149
784.886	0.177895
794.528	0.165752
804.171	0.152655
813.813	0.130737
823.455	0.120843
833.098	0.131459
842.74	0.132874
852.382	0.0870782
862.025	0.0531837
871.667	0.0319608
881.309	0.0264065
890.952	0.0296189
900.594	0.0370653
910.236	0.0467603
919.879	0.0505102
929.521	0.0481925
939.163	0.043785
948.806	0.0360011
958.448	0.0336803
968.09	0.0425152
977.733	0.0461022
987.375	0.0421228
997.017	0.039271
1006.66	0.0397049
1016.3	0.0412008
1025.94	0.0454011
1035.59	0.0435068
1045.23	0.0373659
1054.87	0.0349531
1064.51	0.0283698
1074.16	0.0197468
1083.8	0.0140576
1093.44	0.0120575
1103.08	0.0112939
1112.72	0.010525
1122.37	0.0100732
1132.01	0.0098823
1141.65	0.00966416
1151.3	0.00943543
1160.94	0.00918489
1170.58	0.00913826
1180.22	0.00947167
1189.86	0.00936763
1199.51	0.00928843
1209.15	0.00931153
1218.79	0.00919529
1228.43	0.00953721
1238.08	0.00990268
1247.72	0.0105006
1257.36	0.0102176
1267	0.0104554
1276.64	0.0106551
1286.29	0.0113552
1295.93	0.0115873
1305.57	0.0123607
1315.21	0.0133383
1324.86	0.014386
1334.5	0.0154537
1344.14	0.0166803
1353.78	0.0205308
1363.43	0.0216009
1373.07	0.0221321
1382.71	0.0239275
1392.35	0.0273063
1401.99	0.0291047
1411.64	0.0249661
1421.28	0.0228956
1430.92	0.0231722
1440.57	0.0265375
1450.21	0.0278056
1459.85	0.0241916
1469.49	0.0206804
1479.13	0.0190668
1488.78	0.0182822
1498.42	0.0178466
1508.06	0.0175015
1517.7	0.017534
1527.35	0.017539
1536.99	0.0176863
1546.63	0.0186105
1556.27	0.0187726
1565.91	0.0197108
1575.56	0.0205467
1585.2	0.0211875
1594.84	0.0217248
1604.48	0.021809
1614.13	0.0216223
1623.77	0.0218317
1633.41	0.0217505
1643.05	0.0221426
1652.7	0.021552
1662.34	0.0205261
1671.98	0.0202387
1681.62	0.0199638
1691.27	0.0198654
1700.91	0.0197631
1710.55	0.0200997
1720.19	0.0209873
1729.84	0.0216815
1739.48	0.0220057
1749.12	0.0221829
1758.76	0.0224853
1768.4	0.023808
1778.05	0.0246109
1787.69	0.0247545
1797.33	0.0255016
1806.97	0.0258681
1816.62	0.0256595
1826.26	0.0262674
1835.9	0.0254845
1845.54	0.0239921
1855.18	0.0237164
1864.83	0.0227582
1874.47	0.0227347
1884.11	0.0224793
1893.75	0.0221481
1903.4	0.0220789
1913.04	0.0229271
1922.68	0.0229516
1932.32	0.024077
1941.97	0.0224046
1951.61	0.0228454
1961.25	0.0236968
1970.89	0.0236044
1980.54	0.0251333
1990.18	0.0234483
1999.82	0.0251869
2009.46	0.026567
2019.11	0.0251766
2028.75	0.0268325
2038.39	0.0267441
2048.03	0.0281406
2057.67	0.0260117
2067.32	0.0263697
2076.96	0.0277622
2086.6	0.0267964
2096.24	0.0248939
2105.89	0.02574
2115.53	0.0242842
2125.17	0.0224602
2134.81	0.0201943
2144.45	0.0222654
2154.1	0.0200111
2163.74	0.0297487
2173.38	0.0261394
2183.02	0.0267461
2192.67	0.0248787
2202.31	0.0260277
2211.95	0.0251744
2221.59	0.0258168
2231.24	0.0260157
2240.88	0.0263641
2250.52	0.0271044
2260.16	0.0259999
2269.8	0.0275278
2279.45	0.0266817
2289.09	0.0278987
2298.73	0.0274432
2308.38	0.0270544
2318.02	0.0284998
2327.66	0.0268671
2337.3	0.0274409
2346.94	0.0269624
2356.59	0.0276735
2366.23	0.0267682
2375.87	0.0268696
2385.51	0.0263966
2395.16	0.0276218
2404.8	0.0277565
2414.44	0.0277117
2424.08	0.0274776
2433.72	0.0284667
2443.37	0.0299168
2453.01	0.0301081
2462.65	0.0298895
2472.29	0.0293158
2481.94	0.0299077
2491.58	0.0293506
2501.22	0.0297948
2510.86	0.0314239
2520.51	0.0298472
2530.15	0.0304737
2539.79	0.031668
2549.43	0.0309459
2559.07	0.0324713
2568.72	0.032835
2578.36	0.0328989
2588	0.0329884
2597.64	0.0333577
2607.29	0.0343183
2616.93	0.0337399
2626.57	0.0346573
2636.21	0.0346445
2645.86	0.035591
2655.5	0.0348631
2665.14	0.0347317
2674.78	0.0350205
2684.43	0.0355172
2694.07	0.0358004
2703.71	0.0360096
2713.35	0.0358005
2722.99	0.0377519
2732.64	0.0372055
2742.28	0.0379454
2751.92	0.0382639
2761.56	0.0390547
2771.21	0.0387683
2780.85	0.0402145
2790.49	0.0410006
2800.13	0.0409648
2809.78	0.0422469
2819.42	0.0430499
2829.06	0.0443948
2838.7	0.045132
2848.34	0.0450128
2857.99	0.0451633
2867.63	0.0462755
2877.27	0.0473467
2886.91	0.0493198
2896.56	0.0494826
2906.2	0.0502633
2915.84	0.0530824
2925.48	0.0521981
2935.13	0.0535788
2944.77	0.0562505
2954.41	0.0574228
2964.05	0.0599666
2973.7	0.0630148
2983.34	0.0654813
2992.98	0.0670796
3002.62	0.0699195
3012.26	0.072416
3021.91	0.0754904
3031.55	0.0785142
3041.19	0.0812137
3050.83	0.0845668
3060.48	0.0887215
3070.12	0.0954286
3079.76	0.0973586
3089.4	0.102074
3099.05	0.107808
3108.69	0.112089
3118.33	0.119202
3127.97	0.125471
3137.61	0.132714
3147.26	0.13666
3156.9	0.141241
3166.54	0.144217
3176.18	0.145538
3185.83	0.147972
3195.47	0.147881
3205.11	0.147872
3214.75	0.14485
3224.4	0.142032
3234.04	0.1374
3243.68	0.131863
3253.32	0.124423
3262.97	0.117297
3272.61	0.107772
3282.25	0.0990481
3291.89	0.091449
3301.53	0.0867693
3311.18	0.0810082
3320.82	0.0760921
3330.46	0.0750701
3340.1	0.0687961
3349.75	0.066716
3359.39	0.061518
3369.03	0.0610531
3378.67	0.0599209
3388.32	0.0574968
3397.96	0.0565882
3407.6	0.0546251
3417.24	0.0540466
3426.89	0.0516921
3436.53	0.0506808
3446.17	0.0510863
3455.81	0.0507874
3465.45	0.05087
3475.1	0.0471392
3484.74	0.0505184
3494.38	0.0482589
3504.02	0.046384
3513.67	0.0456962
3523.31	0.0463705
3532.95	0.0440585
3542.59	0.0450279
3552.24	0.0444531
3561.88	0.0410348
3571.52	0.037289
3581.16	0.0421413
3590.8	0.0394905
3600.45	0.0409916
3610.09	0.0405801
3619.73	0.0419437
3629.37	0.0393813
3639.02	0.038483
3648.66	0.0375796
3658.3	0.0392201
3667.94	0.0379673
3677.59	0.0362235
3687.23	0.0388027
3696.87	0.036472
3706.51	0.0395025
3716.16	0.0371047
3725.8	0.0406242
3735.44	0.0386106
3745.08	0.0392608
3754.72	0.0366981
3764.37	0.0380511
3774.01	0.0396706
3783.65	0.0370689
3793.29	0.0394913
3802.94	0.041396
3812.58	0.0379032
3822.22	0.040057
3831.86	0.0378852
3841.51	0.0375995
3851.15	0.0370172
3860.79	0.0402283
3870.43	0.0383554
3880.07	0.0413707
3889.72	0.0410254
3899.36	0.0396497
3909	0.0407038
3918.64	0.0409845
3928.29	0.0416483
3937.93	0.041606
3947.57	0.042796
3957.21	0.038685
3966.86	0.0405458
3976.5	0.041444
3986.14	0.0439743
3995.78	0.0433151
