Measurement: Infrared, Infrared Data Processed
Mineral: Corundum
Rruff sample: R060020
Ideal chemistry: Al_2_O_3_
Locality: Yogo Gulch, Montana, USA
Source: American Museum of Natural History
Description: Water rounded light blue fragment
Measured chemistry: (Al_1.99_Fe^3+^_0.01_)_Î£=2_O_3_ ; Fe^3+^ by charge balance
x	intensity
399.193	0.344743
408.835	0.338613
418.477	0.343361
428.12	0.337335
437.762	0.322605
447.404	0.29907
457.047	0.258485
466.689	0.197693
476.331	0.136776
485.974	0.144763
495.616	0.158125
505.258	0.145823
514.901	0.186705
524.543	0.263915
534.185	0.328821
543.828	0.363082
553.47	0.37426
563.112	0.366612
572.755	0.355367
582.397	0.349889
592.039	0.342316
601.682	0.326369
611.324	0.303362
620.966	0.275877
630.609	0.287029
640.251	0.286218
649.893	0.261933
659.536	0.242011
669.178	0.225904
678.82	0.211725
688.463	0.199539
698.105	0.188804
707.747	0.179191
717.39	0.16942
727.032	0.15982
736.674	0.150541
746.317	0.141387
755.959	0.132858
765.601	0.124859
775.244	0.116191
784.886	0.107691
794.528	0.0999327
804.171	0.0922269
813.813	0.0843434
823.455	0.07611
833.098	0.0676029
842.74	0.059008
852.382	0.0505489
862.025	0.0415767
871.667	0.0331659
881.309	0.0257967
890.952	0.0210433
900.594	0.0178098
910.236	0.0146111
919.879	0.0124501
929.521	0.0110257
939.163	0.0100958
948.806	0.00920916
958.448	0.00824295
968.09	0.00768071
977.733	0.00726062
987.375	0.00710415
997.017	0.00720087
1006.66	0.00692252
1016.3	0.00707484
1025.94	0.00698772
1035.59	0.00716631
1045.23	0.00696589
1054.87	0.00688355
1064.51	0.00683989
1074.16	0.00639624
1083.8	0.0061574
1093.44	0.00575591
1103.08	0.00572669
1112.72	0.00551526
1122.37	0.00517569
1132.01	0.00467329
1141.65	0.00427149
1151.3	0.00423592
1160.94	0.00406266
1170.58	0.00380554
1180.22	0.00353156
1189.86	0.00322277
1199.51	0.00330388
1209.15	0.00313324
1218.79	0.00301451
1228.43	0.00293976
1238.08	0.00302607
1247.72	0.00308323
1257.36	0.00316928
1267	0.00316128
1276.64	0.00338857
1286.29	0.00342308
1295.93	0.00359591
1305.57	0.0035138
1315.21	0.00341387
1324.86	0.0035619
1334.5	0.00332845
1344.14	0.00348268
1353.78	0.00341472
1363.43	0.00315166
1373.07	0.003382
1382.71	0.00343796
1392.35	0.00354267
1401.99	0.00361211
1411.64	0.00384585
1421.28	0.0034811
1430.92	0.00374784
1440.57	0.00400219
1450.21	0.00393807
1459.85	0.00357853
1469.49	0.00357377
1479.13	0.00399734
1488.78	0.00344201
1498.42	0.00349146
1508.06	0.00278369
1517.7	0.00370285
1527.35	0.00410665
1536.99	0.0039805
1546.63	0.00450335
1556.27	0.00351051
1565.91	0.00529123
1575.56	0.00401895
1585.2	0.00539704
1594.84	0.00572169
1604.48	0.00589953
1614.13	0.00562006
1623.77	0.00557407
1633.41	0.00569577
1643.05	0.00588774
1652.7	0.00288081
1662.34	0.00577149
1671.98	0.00576883
1681.62	0.00584832
1691.27	0.0065186
1700.91	0.00440162
1710.55	0.00634359
1720.19	0.00586509
1729.84	0.00602934
1739.48	0.00542447
1749.12	0.00526409
1758.76	0.0065369
1768.4	0.00633337
1778.05	0.0072353
1787.69	0.00746524
1797.33	0.0073858
1806.97	0.00768536
1816.62	0.00744232
1826.26	0.00795647
1835.9	0.00782701
1845.54	0.00812171
1855.18	0.0085027
1864.83	0.00865206
1874.47	0.00917083
1884.11	0.00902029
1893.75	0.00886416
1903.4	0.00908883
1913.04	0.00924947
1922.68	0.00933242
1932.32	0.00952057
1941.97	0.00958728
1951.61	0.0104805
1961.25	0.0105612
1970.89	0.0100702
1980.54	0.0131769
1990.18	0.0119304
1999.82	0.0103815
2009.46	0.011635
2019.11	0.0111925
2028.75	0.0112765
2038.39	0.0130378
2048.03	0.0116991
2057.67	0.0109063
2067.32	0.0109758
2076.96	0.0120077
2086.6	0.011575
2096.24	0.0113518
2105.89	0.0118198
2115.53	0.0119289
2125.17	0.0105679
2134.81	0.00915744
2144.45	0.00984658
2154.1	0.00877376
2163.74	0.0152875
2173.38	0.0133817
2183.02	0.0151493
2192.67	0.0145186
2202.31	0.0136881
2211.95	0.0141094
2221.59	0.0137644
2231.24	0.0137457
2240.88	0.0147482
2250.52	0.0138741
2260.16	0.0142537
2269.8	0.0145242
2279.45	0.0146344
2289.09	0.0149313
2298.73	0.0143594
2308.38	0.0146624
2318.02	0.0152629
2327.66	0.0149
2337.3	0.0145036
2346.94	0.0141601
2356.59	0.0146135
2366.23	0.0142729
2375.87	0.0135668
2385.51	0.0133131
2395.16	0.0136925
2404.8	0.0141631
2414.44	0.0142305
2424.08	0.0151417
2433.72	0.0146658
2443.37	0.0150961
2453.01	0.0156408
2462.65	0.0155382
2472.29	0.0149794
2481.94	0.0149965
2491.58	0.0149712
2501.22	0.0153663
2510.86	0.0152294
2520.51	0.0153704
2530.15	0.0161601
2539.79	0.0159384
2549.43	0.0159337
2559.07	0.0164229
2568.72	0.0160208
2578.36	0.0162205
2588	0.0166627
2597.64	0.0163157
2607.29	0.0165917
2616.93	0.0168796
2626.57	0.0174776
2636.21	0.0168202
2645.86	0.0171053
2655.5	0.0168382
2665.14	0.0167004
2674.78	0.016746
2684.43	0.0167722
2694.07	0.016833
2703.71	0.0166238
2713.35	0.017074
2722.99	0.0175221
2732.64	0.017328
2742.28	0.0177208
2751.92	0.0177198
2761.56	0.0176832
2771.21	0.0178641
2780.85	0.0177565
2790.49	0.0180363
2800.13	0.0180567
2809.78	0.0182621
2819.42	0.0183764
2829.06	0.0187335
2838.7	0.0186469
2848.34	0.0178215
2857.99	0.0183991
2867.63	0.0185019
2877.27	0.0189353
2886.91	0.0188876
2896.56	0.0189148
2906.2	0.0188034
2915.84	0.0178699
2925.48	0.0177392
2935.13	0.0185016
2944.77	0.0190565
2954.41	0.0189335
2964.05	0.0188633
2973.7	0.0188607
2983.34	0.0192461
2992.98	0.0193371
3002.62	0.0189009
3012.26	0.0195246
3021.91	0.0194759
3031.55	0.0190741
3041.19	0.0194197
3050.83	0.0201865
3060.48	0.0199869
3070.12	0.0197866
3079.76	0.0205547
3089.4	0.0205881
3099.05	0.0206777
3108.69	0.0207592
3118.33	0.0210297
3127.97	0.0216633
3137.61	0.0219615
3147.26	0.0216153
3156.9	0.021834
3166.54	0.0217716
3176.18	0.022507
3185.83	0.0224038
3195.47	0.0221445
3205.11	0.0230546
3214.75	0.0233235
3224.4	0.0229357
3234.04	0.02323
3243.68	0.0238136
3253.32	0.0229352
3262.97	0.0230382
3272.61	0.0236308
3282.25	0.0231064
3291.89	0.0236178
3301.53	0.0236983
3311.18	0.0236302
3320.82	0.0234234
3330.46	0.0240956
3340.1	0.0237763
3349.75	0.0241297
3359.39	0.023807
3369.03	0.0244726
3378.67	0.0245064
3388.32	0.0245072
3397.96	0.0249233
3407.6	0.0237778
3417.24	0.0242708
3426.89	0.0244898
3436.53	0.024069
3446.17	0.0236141
3455.81	0.0241369
3465.45	0.0246202
3475.1	0.0242148
3484.74	0.0238926
3494.38	0.0233374
3504.02	0.0231351
3513.67	0.023755
3523.31	0.023164
3532.95	0.0238364
3542.59	0.0231226
3552.24	0.0228695
3561.88	0.0229341
3571.52	0.0232275
3581.16	0.0230324
3590.8	0.0214288
3600.45	0.0226115
3610.09	0.0216959
3619.73	0.0212201
3629.37	0.0199807
3639.02	0.022255
3648.66	0.0191558
3658.3	0.0212841
3667.94	0.0217868
3677.59	0.0203729
3687.23	0.0200666
3696.87	0.0220438
3706.51	0.0230258
3716.16	0.0227084
3725.8	0.0217415
3735.44	0.0209697
3745.08	0.0176405
3754.72	0.0213169
3764.37	0.0216307
3774.01	0.0227798
3783.65	0.0225707
3793.29	0.0227939
3802.94	0.0203988
3812.58	0.0218857
3822.22	0.0217554
3831.86	0.0218688
3841.51	0.0215126
3851.15	0.0189761
3860.79	0.0226549
3870.43	0.0201175
3880.07	0.0208404
3889.72	0.0218942
3899.36	0.0213795
3909	0.0223973
3918.64	0.0232589
3928.29	0.0223377
3937.93	0.0229062
3947.57	0.0225794
3957.21	0.0230405
3966.86	0.0230199
3976.5	0.0228025
3986.14	0.0241699
3995.78	0.0227358
