Measurement: Infrared, Infrared Data Processed
Mineral: Curienite
Rruff sample: R050548
Ideal chemistry: Pb^2+^(U^6+^O_2_)_2_(V^5+^O_4_)_2_5H_2_O
Locality: Mounana mine, Franceville, Haut-Ogooué, Gabon
Source: University of Arizona Mineral Museum
Description: Groups of heavily striated orange bladed crystals
Measured chemistry: (Pb_0.83_Ba_0.17_)_Σ=1_(U_1.00_O_2_)_2_(V_1.00_O_4_)_2_·5.1H_2_O
x	intensity
399.193	0.642373
408.835	0.648187
418.477	0.623598
428.12	0.654203
437.762	0.635963
447.404	0.649925
457.047	0.624701
466.689	0.585123
476.331	0.544056
485.974	0.499896
495.616	0.466369
505.258	0.444474
514.901	0.42794
524.543	0.420136
534.185	0.440972
543.828	0.466167
553.47	0.487289
563.112	0.488071
572.755	0.475551
582.397	0.44267
592.039	0.394572
601.682	0.356274
611.324	0.3272
620.966	0.313366
630.609	0.301177
640.251	0.277563
649.893	0.251842
659.536	0.228763
669.178	0.210693
678.82	0.194169
688.463	0.183425
698.105	0.181306
707.747	0.188337
717.39	0.2045
727.032	0.227756
736.674	0.24147
746.317	0.2208
755.959	0.186899
765.601	0.171396
775.244	0.16883
784.886	0.178213
794.528	0.193769
804.171	0.187145
813.813	0.166396
823.455	0.163594
833.098	0.170621
842.74	0.184798
852.382	0.201679
862.025	0.212097
871.667	0.213089
881.309	0.199159
890.952	0.172488
900.594	0.127444
910.236	0.11862
919.879	0.126069
929.521	0.13504
939.163	0.143069
948.806	0.139446
958.448	0.125937
968.09	0.11411
977.733	0.106707
987.375	0.0624612
997.017	0.0305066
1006.66	0.020332
1016.3	0.0174679
1025.94	0.016567
1035.59	0.0169142
1045.23	0.0169939
1054.87	0.0175719
1064.51	0.0171165
1074.16	0.0170871
1083.8	0.0175012
1093.44	0.0176255
1103.08	0.0177707
1112.72	0.0166193
1122.37	0.0168118
1132.01	0.0164612
1141.65	0.0160649
1151.3	0.0151808
1160.94	0.0148502
1170.58	0.0146813
1180.22	0.0148144
1189.86	0.0157094
1199.51	0.0155904
1209.15	0.0156612
1218.79	0.0157004
1228.43	0.016042
1238.08	0.0159654
1247.72	0.0162475
1257.36	0.0168106
1267	0.0172038
1276.64	0.0179005
1286.29	0.0181045
1295.93	0.0191063
1305.57	0.019308
1315.21	0.0198687
1324.86	0.0200218
1334.5	0.0202227
1344.14	0.0205027
1353.78	0.0204749
1363.43	0.0211121
1373.07	0.0212032
1382.71	0.0219533
1392.35	0.023841
1401.99	0.0253754
1411.64	0.0268934
1421.28	0.0263929
1430.92	0.025797
1440.57	0.0247294
1450.21	0.0241221
1459.85	0.0233077
1469.49	0.0236427
1479.13	0.0258346
1488.78	0.0267097
1498.42	0.0278883
1508.06	0.0288374
1517.7	0.0304175
1527.35	0.0321313
1536.99	0.0334858
1546.63	0.0346269
1556.27	0.0361457
1565.91	0.0386099
1575.56	0.0425849
1585.2	0.0492387
1594.84	0.0596704
1604.48	0.0702313
1614.13	0.072551
1623.77	0.061464
1633.41	0.0471573
1643.05	0.0378189
1652.7	0.0311838
1662.34	0.0278613
1671.98	0.0261582
1681.62	0.0247016
1691.27	0.0239367
1700.91	0.0224575
1710.55	0.0202024
1720.19	0.0200189
1729.84	0.0195311
1739.48	0.0170405
1749.12	0.019059
1758.76	0.0225244
1768.4	0.0239986
1778.05	0.024576
1787.69	0.0248427
1797.33	0.0249656
1806.97	0.0252978
1816.62	0.0257132
1826.26	0.0260144
1835.9	0.0259439
1845.54	0.0264431
1855.18	0.0267936
1864.83	0.026648
1874.47	0.0271145
1884.11	0.0273968
1893.75	0.0273388
1903.4	0.0276562
1913.04	0.0279797
1922.68	0.0278765
1932.32	0.0278536
1941.97	0.0275951
1951.61	0.0278693
1961.25	0.0279964
1970.89	0.028372
1980.54	0.0306611
1990.18	0.0310056
1999.82	0.0289095
2009.46	0.0315782
2019.11	0.0314817
2028.75	0.0305184
2038.39	0.0326759
2048.03	0.0325974
2057.67	0.0315348
2067.32	0.0316888
2076.96	0.0329926
2086.6	0.0312031
2096.24	0.0312777
2105.89	0.0315554
2115.53	0.0313443
2125.17	0.0314204
2134.81	0.0302944
2144.45	0.0326059
2154.1	0.0329093
2163.74	0.0343226
2173.38	0.0323843
2183.02	0.0349955
2192.67	0.0322679
2202.31	0.0337423
2211.95	0.0326116
2221.59	0.0320483
2231.24	0.0322465
2240.88	0.0329475
2250.52	0.0336824
2260.16	0.03395
2269.8	0.0334853
2279.45	0.0340102
2289.09	0.0339919
2298.73	0.033412
2308.38	0.0335111
2318.02	0.0336734
2327.66	0.0333815
2337.3	0.0334997
2346.94	0.0331356
2356.59	0.0334062
2366.23	0.0331271
2375.87	0.0331628
2385.51	0.0334096
2395.16	0.0331599
2404.8	0.034154
2414.44	0.0336184
2424.08	0.0333842
2433.72	0.0344826
2443.37	0.0338617
2453.01	0.0352703
2462.65	0.0344168
2472.29	0.0339512
2481.94	0.0347408
2491.58	0.034563
2501.22	0.0349406
2510.86	0.0349901
2520.51	0.034798
2530.15	0.0353977
2539.79	0.0359383
2549.43	0.0358779
2559.07	0.0360112
2568.72	0.0357633
2578.36	0.0361778
2588	0.03662
2597.64	0.0363101
2607.29	0.0366789
2616.93	0.0361576
2626.57	0.0368048
2636.21	0.0376197
2645.86	0.0368628
2655.5	0.0376494
2665.14	0.0374799
2674.78	0.0373272
2684.43	0.0374248
2694.07	0.0377675
2703.71	0.0379472
2713.35	0.0392537
2722.99	0.039066
2732.64	0.0391445
2742.28	0.038773
2751.92	0.0396982
2761.56	0.0398977
2771.21	0.040016
2780.85	0.0408099
2790.49	0.0406995
2800.13	0.0411433
2809.78	0.0416862
2819.42	0.0418953
2829.06	0.0419926
2838.7	0.0424064
2848.34	0.0415128
2857.99	0.0420513
2867.63	0.0426462
2877.27	0.0432571
2886.91	0.0436778
2896.56	0.0442513
2906.2	0.0444726
2915.84	0.0441301
2925.48	0.0446799
2935.13	0.0458696
2944.77	0.0461386
2954.41	0.0460886
2964.05	0.0478285
2973.7	0.0474144
2983.34	0.0489143
2992.98	0.0500225
3002.62	0.0511266
3012.26	0.0514332
3021.91	0.0523364
3031.55	0.0520237
3041.19	0.0533622
3050.83	0.0530785
3060.48	0.0545251
3070.12	0.0546916
3079.76	0.056431
3089.4	0.0572133
3099.05	0.0572771
3108.69	0.0573191
3118.33	0.0588237
3127.97	0.0608958
3137.61	0.0604837
3147.26	0.0613807
3156.9	0.0623047
3166.54	0.0628462
3176.18	0.0632157
3185.83	0.0641987
3195.47	0.0642449
3205.11	0.0641416
3214.75	0.064225
3224.4	0.064844
3234.04	0.0653856
3243.68	0.0663128
3253.32	0.0676022
3262.97	0.0681402
3272.61	0.0685645
3282.25	0.0706616
3291.89	0.0712935
3301.53	0.0718153
3311.18	0.0724569
3320.82	0.0739016
3330.46	0.0740917
3340.1	0.0754571
3349.75	0.0768441
3359.39	0.0782859
3369.03	0.0780951
3378.67	0.0780805
3388.32	0.0778806
3397.96	0.0783
3407.6	0.0783699
3417.24	0.0777294
3426.89	0.0778012
3436.53	0.0761627
3446.17	0.0763104
3455.81	0.0753042
3465.45	0.0750962
3475.1	0.073455
3484.74	0.0730653
3494.38	0.0701452
3504.02	0.0706411
3513.67	0.0692897
3523.31	0.0666595
3532.95	0.0642578
3542.59	0.0613718
3552.24	0.0596534
3561.88	0.0567075
3571.52	0.0545428
3581.16	0.0520046
3590.8	0.0481385
3600.45	0.0449142
3610.09	0.0415127
3619.73	0.0362399
3629.37	0.0332564
3639.02	0.0293676
3648.66	0.0289569
3658.3	0.0272006
3667.94	0.0276675
3677.59	0.0276392
3687.23	0.0280391
3696.87	0.0284525
3706.51	0.027596
3716.16	0.0279138
3725.8	0.0283874
3735.44	0.0291188
3745.08	0.0293298
3754.72	0.0295665
3764.37	0.0293863
3774.01	0.0298436
3783.65	0.0305299
3793.29	0.0294115
3802.94	0.0300859
3812.58	0.0311161
3822.22	0.0298321
3831.86	0.0301903
3841.51	0.0320771
3851.15	0.0312762
3860.79	0.0312835
3870.43	0.0317166
3880.07	0.0319173
3889.72	0.0319918
3899.36	0.0307731
3909	0.0316963
3918.64	0.0315459
3928.29	0.0315995
3937.93	0.0317011
3947.57	0.0325338
3957.21	0.0328026
3966.86	0.0326961
3976.5	0.0313092
3986.14	0.0313211
3995.78	0.033006
