Measurement: Infrared, Infrared Data Processed
Mineral: Danburite
Rruff sample: R040013
Ideal chemistry: CaB_2_Si_2_O_8_
Locality: Charcas, San Luis Potosi, Mexico
Source: Marcus Origlieri
Description: Colorless prismatic single crystal
Measured chemistry: Ca_1.00_B_2.00_Si_2.00_O_8_
x	intensity
399.193	0
408.835	0.160406
418.477	0.161804
428.12	0.116588
437.762	0.0971769
447.404	0.0527945
457.047	0.0598148
466.689	0.0705385
476.331	0.138416
485.974	0.0924404
495.616	0.0330389
505.258	0.0437065
514.901	0.0755475
524.543	0.113047
534.185	0.0494759
543.828	0.0464853
553.47	0.0574706
563.112	0.0712656
572.755	0.0894251
582.397	0.110604
592.039	0.138096
601.682	0.171065
611.324	0.216525
620.966	0.161825
630.609	0.0687423
640.251	0.0746146
649.893	0.114698
659.536	0.125449
669.178	0.0774276
678.82	0.0685639
688.463	0.0976335
698.105	0.135311
707.747	0.0623117
717.39	0.0488588
727.032	0.0575073
736.674	0.0697944
746.317	0.0887921
755.959	0.0811982
765.601	0.0926215
775.244	0.106488
784.886	0.12045
794.528	0.135002
804.171	0.151222
813.813	0.173592
823.455	0.154086
833.098	0.17862
842.74	0.199803
852.382	0.21972
862.025	0.239083
871.667	0.238765
881.309	0.213947
890.952	0.187582
900.594	0.203149
910.236	0.235664
919.879	0.25527
929.521	0.26145
939.163	0.255838
948.806	0.241359
958.448	0.228498
968.09	0.233313
977.733	0.18663
987.375	0.167101
997.017	0.168929
1006.66	0.169079
1016.3	0.161094
1025.94	0.153259
1035.59	0.140605
1045.23	0.121223
1054.87	0.0826673
1064.51	0.0716595
1074.16	0.088923
1083.8	0.139998
1093.44	0.173278
1103.08	0.165014
1112.72	0.142243
1122.37	0.138074
1132.01	0.145677
1141.65	0.12796
1151.3	0.100779
1160.94	0.0788234
1170.58	0.0613837
1180.22	0.0468481
1189.86	0.0353849
1199.51	0.0252019
1209.15	0.0171698
1218.79	0.01244
1228.43	0.0101715
1238.08	0.00828314
1247.72	0.00715295
1257.36	0.0064867
1267	0.0058513
1276.64	0.00556655
1286.29	0.00533331
1295.93	0.00522946
1305.57	0.00511679
1315.21	0.00498834
1324.86	0.00512979
1334.5	0.00497083
1344.14	0.00489813
1353.78	0.00477836
1363.43	0.00512854
1373.07	0.00509217
1382.71	0.00490594
1392.35	0.00503378
1401.99	0.00475194
1411.64	0.00536401
1421.28	0.00528613
1430.92	0.0051191
1440.57	0.00529193
1450.21	0.00491714
1459.85	0.00465428
1469.49	0.00490712
1479.13	0.00458303
1488.78	0.00429474
1498.42	0.00451023
1508.06	0.00381432
1517.7	0.00431777
1527.35	0.00448403
1536.99	0.00491775
1546.63	0.00476742
1556.27	0.0052199
1565.91	0.00563311
1575.56	0.00617137
1585.2	0.00679739
1594.84	0.00740584
1604.48	0.00750464
1614.13	0.00830836
1623.77	0.00863427
1633.41	0.00784787
1643.05	0.00791609
1652.7	0.00727177
1662.34	0.00739624
1671.98	0.00702426
1681.62	0.00731118
1691.27	0.00656
1700.91	0.00544413
1710.55	0.00643524
1720.19	0.00586679
1729.84	0.00500467
1739.48	0.00478127
1749.12	0.00446791
1758.76	0.0048029
1768.4	0.0045721
1778.05	0.00472952
1787.69	0.00486459
1797.33	0.00464187
1806.97	0.00459396
1816.62	0.00392272
1826.26	0.00407911
1835.9	0.00430211
1845.54	0.0041079
1855.18	0.00379498
1864.83	0.00325058
1874.47	0.00369447
1884.11	0.00304697
1893.75	0.00333749
1903.4	0.00254387
1913.04	0.003119
1922.68	0.00220798
1932.32	0.0010408
1941.97	0.000783608
1951.61	0.00100145
1961.25	-3.20242e-05
1970.89	-0.00172341
1980.54	0.00273044
1990.18	0.000633302
1999.82	-0.000232107
2009.46	0.000916129
2019.11	-0.000174945
2028.75	-0.00310488
2038.39	0.00152738
2048.03	0.000581177
2057.67	0.00288027
2067.32	0.00267486
2076.96	0.00281333
2086.6	0.00354113
2096.24	0.00319634
2105.89	0.00491088
2115.53	0.00436577
2125.17	0.00340274
2134.81	0.00328035
2144.45	-0.000517865
2154.1	-0.00300366
2163.74	0.000301753
2173.38	-0.00119692
2183.02	-0.00159852
2192.67	0.000204428
2202.31	0.00085502
2211.95	0.000284783
2221.59	0.00143124
2231.24	0.00200099
2240.88	0.0031896
2250.52	0.00387323
2260.16	0.00336568
2269.8	0.00383514
2279.45	0.00489154
2289.09	0.00591349
2298.73	0.00657173
2308.38	0.00786457
2318.02	0.00815057
2327.66	0.00772413
2337.3	0.00814375
2346.94	0.00829269
2356.59	0.00834379
2366.23	0.00869303
2375.87	0.00895545
2385.51	0.00861617
2395.16	0.00907903
2404.8	0.00905483
2414.44	0.00993813
2424.08	0.010023
2433.72	0.0109497
2443.37	0.0113856
2453.01	0.0114224
2462.65	0.0116699
2472.29	0.0105222
2481.94	0.0113872
2491.58	0.0118873
2501.22	0.011556
2510.86	0.0118421
2520.51	0.0118812
2530.15	0.0117596
2539.79	0.0113154
2549.43	0.0113872
2559.07	0.0114008
2568.72	0.0125964
2578.36	0.010966
2588	0.0122117
2597.64	0.0124505
2607.29	0.0122106
2616.93	0.0130318
2626.57	0.0129879
2636.21	0.0132052
2645.86	0.0134624
2655.5	0.012676
2665.14	0.0129341
2674.78	0.0128176
2684.43	0.0134737
2694.07	0.0139185
2703.71	0.01374
2713.35	0.0137759
2722.99	0.0147871
2732.64	0.0139751
2742.28	0.0148284
2751.92	0.0159957
2761.56	0.0158776
2771.21	0.0155778
2780.85	0.0170251
2790.49	0.0172456
2800.13	0.0182344
2809.78	0.0178178
2819.42	0.0175991
2829.06	0.0192921
2838.7	0.0191685
2848.34	0.0193265
2857.99	0.019
2867.63	0.0195243
2877.27	0.0205868
2886.91	0.0209742
2896.56	0.0207038
2906.2	0.0221456
2915.84	0.0223639
2925.48	0.0216032
2935.13	0.0211832
2944.77	0.0222126
2954.41	0.0204343
2964.05	0.0212432
2973.7	0.0225095
2983.34	0.0209002
2992.98	0.0219363
3002.62	0.0203351
3012.26	0.0205848
3021.91	0.0210141
3031.55	0.0204441
3041.19	0.0205257
3050.83	0.0198502
3060.48	0.0198163
3070.12	0.0195315
3079.76	0.0197062
3089.4	0.0197079
3099.05	0.0199915
3108.69	0.0195816
3118.33	0.0180303
3127.97	0.0197625
3137.61	0.0208348
3147.26	0.0192407
3156.9	0.0192444
3166.54	0.019265
3176.18	0.0193966
3185.83	0.0187529
3195.47	0.0192432
3205.11	0.0192975
3214.75	0.0195271
3224.4	0.0184381
3234.04	0.0197736
3243.68	0.0179311
3253.32	0.0193668
3262.97	0.0198166
3272.61	0.0188024
3282.25	0.0212839
3291.89	0.020897
3301.53	0.021001
3311.18	0.0228807
3320.82	0.0246049
3330.46	0.0245387
3340.1	0.0274995
3349.75	0.0251595
3359.39	0.0264959
3369.03	0.0261687
3378.67	0.0261538
3388.32	0.0281159
3397.96	0.0253852
3407.6	0.0254436
3417.24	0.023129
3426.89	0.0216023
3436.53	0.0204603
3446.17	0.0196394
3455.81	0.0192837
3465.45	0.0192159
3475.1	0.0169427
3484.74	0.0176079
3494.38	0.0159052
3504.02	0.0165728
3513.67	0.017174
3523.31	0.0166213
3532.95	0.0158035
3542.59	0.0169254
3552.24	0.0144147
3561.88	0.0161931
3571.52	0.0120296
3581.16	0.012082
3590.8	0.0112883
3600.45	0.0128574
3610.09	0.00976995
3619.73	0.0112404
3629.37	0.00999192
3639.02	0.0096707
3648.66	0.00925652
3658.3	0.008978
3667.94	0.0110121
3677.59	0.0108064
3687.23	0.00667239
3696.87	0.00959098
3706.51	0.00880037
3716.16	0.00831831
3725.8	0.00823854
3735.44	0.00957175
3745.08	0.0110744
3754.72	0.00838268
3764.37	0.00825503
3774.01	0.00977596
3783.65	0.00847731
3793.29	0.00724836
3802.94	0.0104677
3812.58	0.00929996
3822.22	0.00952307
3831.86	0.0101256
3841.51	0.0101644
3851.15	0.0111832
3860.79	0.00737943
3870.43	0.00931888
3880.07	0.0103456
3889.72	0.011133
3899.36	0.00848666
3909	0.00897309
3918.64	0.0107197
3928.29	0.00763282
3937.93	0.00665406
3947.57	0.0114389
3957.21	0.009382
3966.86	0.00837115
3976.5	0.0100476
3986.14	0.00847425
3995.78	0.00975899
