Measurement: Infrared, Infrared Data Processed
Mineral: Datolite
Rruff sample: R050033
Ideal chemistry: CaB(SiO_4_)(OH)
Locality: Westfield, Massachusetts, USA
Source: University of Arizona Mineral Museum
Description: Group of pale green single crystals
Measured chemistry: Ca_1.00_B_1.00_Si_1.00_O_4_(OH) ; trace amounts of Al and Na; B measured and corrected according to stoichiometry;  OH estimated by stoichiometry end charge balance
x	intensity
399.193	0
408.835	0.113665
418.477	0.179294
428.12	0.0812955
437.762	0.109622
447.404	0.161489
457.047	0.181322
466.689	0.243757
476.331	0.231765
485.974	0.253682
495.616	0.266422
505.258	0.228499
514.901	0.187909
524.543	0.157168
534.185	0.126783
543.828	0.0851394
553.47	0.0430653
563.112	0.0432655
572.755	0.10517
582.397	0.0451771
592.039	0.0313609
601.682	0.0297938
611.324	0.029135
620.966	0.0294765
630.609	0.0312487
640.251	0.0377822
649.893	0.0459905
659.536	0.060768
669.178	0.0817505
678.82	0.12796
688.463	0.172031
698.105	0.0958509
707.747	0.0569988
717.39	0.0619152
727.032	0.0756403
736.674	0.0982666
746.317	0.119595
755.959	0.145569
765.601	0.191835
775.244	0.252621
784.886	0.275089
794.528	0.145923
804.171	0.123434
813.813	0.163127
823.455	0.214114
833.098	0.272565
842.74	0.335102
852.382	0.324365
862.025	0.300947
871.667	0.357297
881.309	0.353734
890.952	0.295527
900.594	0.321782
910.236	0.379086
919.879	0.348198
929.521	0.320796
939.163	0.311413
948.806	0.268091
958.448	0.211562
968.09	0.217929
977.733	0.237842
987.375	0.255636
997.017	0.231621
1006.66	0.227242
1016.3	0.205001
1025.94	0.189982
1035.59	0.255328
1045.23	0.224437
1054.87	0.180271
1064.51	0.149438
1074.16	0.14289
1083.8	0.145552
1093.44	0.148013
1103.08	0.134169
1112.72	0.11765
1122.37	0.101361
1132.01	0.0882495
1141.65	0.082783
1151.3	0.0899258
1160.94	0.0797991
1170.58	0.0556704
1180.22	0.0344324
1189.86	0.0213467
1199.51	0.0159279
1209.15	0.0136271
1218.79	0.0119157
1228.43	0.0107603
1238.08	0.0095279
1247.72	0.00853257
1257.36	0.00761731
1267	0.0069224
1276.64	0.00641262
1286.29	0.00578011
1295.93	0.00553699
1305.57	0.00522199
1315.21	0.0051074
1324.86	0.0052905
1334.5	0.00565708
1344.14	0.00626691
1353.78	0.00671362
1363.43	0.00664363
1373.07	0.00634408
1382.71	0.00630554
1392.35	0.00618141
1401.99	0.0066437
1411.64	0.00686991
1421.28	0.00729178
1430.92	0.00728714
1440.57	0.00719504
1450.21	0.0072717
1459.85	0.00690454
1469.49	0.00676222
1479.13	0.00603697
1488.78	0.00606573
1498.42	0.00607813
1508.06	0.00565094
1517.7	0.00576608
1527.35	0.00615228
1536.99	0.00678939
1546.63	0.00758264
1556.27	0.007884
1565.91	0.00793348
1575.56	0.00766878
1585.2	0.00826989
1594.84	0.00808159
1604.48	0.00794422
1614.13	0.00800939
1623.77	0.00753306
1633.41	0.0072753
1643.05	0.00707629
1652.7	0.00701773
1662.34	0.00689705
1671.98	0.00642841
1681.62	0.00641751
1691.27	0.00601941
1700.91	0.00491995
1710.55	0.00502888
1720.19	0.00569799
1729.84	0.00541134
1739.48	0.00510812
1749.12	0.00501274
1758.76	0.00484633
1768.4	0.00504493
1778.05	0.00479147
1787.69	0.00528358
1797.33	0.00515694
1806.97	0.0056282
1816.62	0.00511055
1826.26	0.005508
1835.9	0.00562226
1845.54	0.00588014
1855.18	0.00667601
1864.83	0.00538836
1874.47	0.00614717
1884.11	0.0047599
1893.75	0.00531631
1903.4	0.00558933
1913.04	0.00609188
1922.68	0.00473709
1932.32	0.00473113
1941.97	0.00411969
1951.61	0.00351611
1961.25	0.0027022
1970.89	0.00209135
1980.54	0.00471044
1990.18	0.00266015
1999.82	0.00322391
2009.46	0.00164895
2019.11	0.00175769
2028.75	0.00177628
2038.39	0.00291681
2048.03	0.0048874
2057.67	0.00329876
2067.32	0.00263258
2076.96	0.00453506
2086.6	0.00492645
2096.24	0.00417706
2105.89	0.00586289
2115.53	0.0044698
2125.17	0.00544575
2134.81	0.00318044
2144.45	0.003095
2154.1	-4.43736e-05
2163.74	0.00588891
2173.38	0.00436076
2183.02	0.00340075
2192.67	0.00568723
2202.31	0.00530493
2211.95	0.00559473
2221.59	0.00758617
2231.24	0.00719194
2240.88	0.00814532
2250.52	0.00698968
2260.16	0.00816898
2269.8	0.00904973
2279.45	0.00988534
2289.09	0.0104161
2298.73	0.00942029
2308.38	0.0103172
2318.02	0.00970513
2327.66	0.00903882
2337.3	0.00945347
2346.94	0.00985875
2356.59	0.0105679
2366.23	0.00945939
2375.87	0.0100224
2385.51	0.0100866
2395.16	0.010655
2404.8	0.0104386
2414.44	0.0108255
2424.08	0.0112338
2433.72	0.0114307
2443.37	0.0114612
2453.01	0.0117378
2462.65	0.0122994
2472.29	0.0110238
2481.94	0.0107718
2491.58	0.0118987
2501.22	0.0119722
2510.86	0.0115448
2520.51	0.0122092
2530.15	0.011618
2539.79	0.0122358
2549.43	0.0125818
2559.07	0.0127248
2568.72	0.0126059
2578.36	0.0119658
2588	0.0125453
2597.64	0.0123524
2607.29	0.0133705
2616.93	0.0128208
2626.57	0.0125
2636.21	0.0123927
2645.86	0.0129164
2655.5	0.0131924
2665.14	0.0123731
2674.78	0.0120541
2684.43	0.0123808
2694.07	0.0127142
2703.71	0.0122363
2713.35	0.0119006
2722.99	0.0119989
2732.64	0.0125514
2742.28	0.0133035
2751.92	0.0135095
2761.56	0.0132041
2771.21	0.0136216
2780.85	0.0138579
2790.49	0.0131927
2800.13	0.013688
2809.78	0.014019
2819.42	0.0137891
2829.06	0.014934
2838.7	0.0150053
2848.34	0.0146478
2857.99	0.0147749
2867.63	0.0141744
2877.27	0.0150523
2886.91	0.0146146
2896.56	0.0155312
2906.2	0.0151612
2915.84	0.0163943
2925.48	0.0145401
2935.13	0.0143778
2944.77	0.0159075
2954.41	0.0142287
2964.05	0.0151482
2973.7	0.0149517
2983.34	0.015914
2992.98	0.0167188
3002.62	0.0167086
3012.26	0.0166917
3021.91	0.0175239
3031.55	0.0175555
3041.19	0.0170211
3050.83	0.0164888
3060.48	0.0174946
3070.12	0.017707
3079.76	0.0187522
3089.4	0.0174565
3099.05	0.017854
3108.69	0.0176799
3118.33	0.0178092
3127.97	0.0173598
3137.61	0.0183557
3147.26	0.018784
3156.9	0.0193186
3166.54	0.0185324
3176.18	0.0189148
3185.83	0.018944
3195.47	0.0190933
3205.11	0.0184638
3214.75	0.019126
3224.4	0.0193833
3234.04	0.0199815
3243.68	0.018446
3253.32	0.0189268
3262.97	0.0192442
3272.61	0.0199143
3282.25	0.0202738
3291.89	0.0201616
3301.53	0.0200061
3311.18	0.0196166
3320.82	0.0198681
3330.46	0.0198392
3340.1	0.0209284
3349.75	0.0212174
3359.39	0.0217288
3369.03	0.0220604
3378.67	0.0221119
3388.32	0.0219992
3397.96	0.0230311
3407.6	0.0234816
3417.24	0.0241488
3426.89	0.0262915
3436.53	0.0269951
3446.17	0.0290816
3455.81	0.0331027
3465.45	0.0424314
3475.1	0.0625874
3484.74	0.127651
3494.38	0.141805
3504.02	0.0413648
3513.67	0.0230341
3523.31	0.0193341
3532.95	0.0171326
3542.59	0.0174116
3552.24	0.0169466
3561.88	0.0187967
3571.52	0.0238342
3581.16	0.0239248
3590.8	0.0210768
3600.45	0.0189495
3610.09	0.0182399
3619.73	0.0173364
3629.37	0.0184638
3639.02	0.0189726
3648.66	0.0190449
3658.3	0.0169169
3667.94	0.0165587
3677.59	0.0179284
3687.23	0.017763
3696.87	0.0170037
3706.51	0.0170026
3716.16	0.0175813
3725.8	0.0177284
3735.44	0.0171851
3745.08	0.016105
3754.72	0.0171191
3764.37	0.0166104
3774.01	0.0171255
3783.65	0.0195613
3793.29	0.0196705
3802.94	0.0186627
3812.58	0.0189422
3822.22	0.0182449
3831.86	0.0194058
3841.51	0.0188672
3851.15	0.0185698
3860.79	0.0180121
3870.43	0.018624
3880.07	0.01762
3889.72	0.0189465
3899.36	0.0173944
3909	0.019859
3918.64	0.0185441
3928.29	0.0183052
3937.93	0.0181965
3947.57	0.01747
3957.21	0.020313
3966.86	0.0212018
3976.5	0.0192333
3986.14	0.0198646
3995.78	0.0211055
