Measurement: Infrared, Infrared Data Processed
Mineral: Delafossite
Rruff sample: R050403
Ideal chemistry: Cu^1+^Fe^3+^O_2_
Locality: Cole Shaft, Bisbee, Cochise County, Arizona, USA
Source: Marcus Origlieri
Description: Black bladed rosettes
Measured chemistry: Cu^1+^(Fe^3+^_0.94_Al_0.06_)O_2_
x	intensity
399.193	0.273585
408.835	0.263859
418.477	0.242619
428.12	0.228873
437.762	0.222073
447.404	0.204112
457.047	0.194772
466.689	0.1844
476.331	0.169913
485.974	0.160482
495.616	0.150061
505.258	0.140996
514.901	0.133435
524.543	0.130207
534.185	0.133247
543.828	0.138576
553.47	0.142893
563.112	0.145904
572.755	0.146609
582.397	0.15141
592.039	0.15816
601.682	0.165866
611.324	0.173759
620.966	0.178978
630.609	0.179969
640.251	0.175354
649.893	0.16904
659.536	0.159028
669.178	0.147545
678.82	0.131974
688.463	0.118828
698.105	0.107441
707.747	0.0986187
717.39	0.0923357
727.032	0.0890174
736.674	0.0861928
746.317	0.083515
755.959	0.0817395
765.601	0.0825827
775.244	0.0844268
784.886	0.0863542
794.528	0.08941
804.171	0.0925293
813.813	0.095234
823.455	0.0982127
833.098	0.100289
842.74	0.102994
852.382	0.107575
862.025	0.11332
871.667	0.117392
881.309	0.12448
890.952	0.128041
900.594	0.127208
910.236	0.124496
919.879	0.121904
929.521	0.123323
939.163	0.126983
948.806	0.129552
958.448	0.130377
968.09	0.13257
977.733	0.135235
987.375	0.138587
997.017	0.141725
1006.66	0.145
1016.3	0.146161
1025.94	0.145553
1035.59	0.145437
1045.23	0.144596
1054.87	0.143048
1064.51	0.137552
1074.16	0.13598
1083.8	0.135014
1093.44	0.134326
1103.08	0.132542
1112.72	0.130169
1122.37	0.128233
1132.01	0.12629
1141.65	0.123359
1151.3	0.119744
1160.94	0.115593
1170.58	0.110316
1180.22	0.109145
1189.86	0.109467
1199.51	0.109435
1209.15	0.110447
1218.79	0.112599
1228.43	0.114256
1238.08	0.116071
1247.72	0.1176
1257.36	0.118444
1267	0.119729
1276.64	0.122108
1286.29	0.124926
1295.93	0.127656
1305.57	0.131364
1315.21	0.135006
1324.86	0.137215
1334.5	0.140322
1344.14	0.142974
1353.78	0.145133
1363.43	0.14732
1373.07	0.148497
1382.71	0.151188
1392.35	0.15382
1401.99	0.155072
1411.64	0.155818
1421.28	0.157294
1430.92	0.157782
1440.57	0.157865
1450.21	0.158411
1459.85	0.158723
1469.49	0.159032
1479.13	0.159453
1488.78	0.161433
1498.42	0.164759
1508.06	0.165838
1517.7	0.166186
1527.35	0.168119
1536.99	0.17015
1546.63	0.171369
1556.27	0.173572
1565.91	0.174292
1575.56	0.175171
1585.2	0.17533
1594.84	0.174431
1604.48	0.173644
1614.13	0.172733
1623.77	0.171531
1633.41	0.171232
1643.05	0.171256
1652.7	0.170711
1662.34	0.171577
1671.98	0.171614
1681.62	0.171838
1691.27	0.172117
1700.91	0.173073
1710.55	0.173859
1720.19	0.175915
1729.84	0.176685
1739.48	0.1775
1749.12	0.177987
1758.76	0.180757
1768.4	0.183242
1778.05	0.183044
1787.69	0.184238
1797.33	0.183881
1806.97	0.185659
1816.62	0.185544
1826.26	0.186731
1835.9	0.187845
1845.54	0.189769
1855.18	0.190379
1864.83	0.191475
1874.47	0.19317
1884.11	0.192463
1893.75	0.195951
1903.4	0.195936
1913.04	0.195347
1922.68	0.19645
1932.32	0.198389
1941.97	0.197859
1951.61	0.197077
1961.25	0.196637
1970.89	0.197811
1980.54	0.202277
1990.18	0.200706
1999.82	0.201572
2009.46	0.200288
2019.11	0.200994
2028.75	0.200537
2038.39	0.203198
2048.03	0.205147
2057.67	0.20846
2067.32	0.210864
2076.96	0.210437
2086.6	0.209738
2096.24	0.212055
2105.89	0.212522
2115.53	0.214664
2125.17	0.215826
2134.81	0.210719
2144.45	0.213156
2154.1	0.208348
2163.74	0.212468
2173.38	0.215802
2183.02	0.213654
2192.67	0.217752
2202.31	0.21832
2211.95	0.22214
2221.59	0.222375
2231.24	0.223677
2240.88	0.22526
2250.52	0.225222
2260.16	0.227156
2269.8	0.228759
2279.45	0.230797
2289.09	0.230887
2298.73	0.23185
2308.38	0.233135
2318.02	0.232409
2327.66	0.23402
2337.3	0.233513
2346.94	0.234771
2356.59	0.236191
2366.23	0.237459
2375.87	0.237798
2385.51	0.2379
2395.16	0.238741
2404.8	0.238812
2414.44	0.24177
2424.08	0.241976
2433.72	0.24226
2443.37	0.244535
2453.01	0.244909
2462.65	0.245598
2472.29	0.246533
2481.94	0.248116
2491.58	0.247727
2501.22	0.249128
2510.86	0.249251
2520.51	0.249705
2530.15	0.251755
2539.79	0.253956
2549.43	0.252625
2559.07	0.255322
2568.72	0.254602
2578.36	0.258177
2588	0.25878
2597.64	0.259145
2607.29	0.259288
2616.93	0.261803
2626.57	0.262611
2636.21	0.262786
2645.86	0.263742
2655.5	0.26604
2665.14	0.266083
2674.78	0.265914
2684.43	0.266701
2694.07	0.269197
2703.71	0.269602
2713.35	0.271548
2722.99	0.273084
2732.64	0.273612
2742.28	0.272722
2751.92	0.275962
2761.56	0.276961
2771.21	0.277069
2780.85	0.278505
2790.49	0.279445
2800.13	0.280556
2809.78	0.282171
2819.42	0.284121
2829.06	0.285265
2838.7	0.286514
2848.34	0.289367
2857.99	0.287608
2867.63	0.288926
2877.27	0.291553
2886.91	0.290834
2896.56	0.292953
2906.2	0.293307
2915.84	0.296195
2925.48	0.294205
2935.13	0.294402
2944.77	0.29608
2954.41	0.293175
2964.05	0.294614
2973.7	0.294169
2983.34	0.295551
2992.98	0.297776
3002.62	0.297154
3012.26	0.300626
3021.91	0.303627
3031.55	0.307276
3041.19	0.306557
3050.83	0.30655
3060.48	0.310722
3070.12	0.309497
3079.76	0.309328
3089.4	0.313842
3099.05	0.314301
3108.69	0.314188
3118.33	0.316169
3127.97	0.316038
3137.61	0.318285
3147.26	0.319513
3156.9	0.318133
3166.54	0.321039
3176.18	0.319526
3185.83	0.318459
3195.47	0.319317
3205.11	0.319321
3214.75	0.320898
3224.4	0.318408
3234.04	0.315706
3243.68	0.317919
3253.32	0.317471
3262.97	0.317839
3272.61	0.317893
3282.25	0.318228
3291.89	0.317704
3301.53	0.320542
3311.18	0.31677
3320.82	0.31792
3330.46	0.320585
3340.1	0.316387
3349.75	0.315157
3359.39	0.314794
3369.03	0.314714
3378.67	0.31377
3388.32	0.31082
3397.96	0.312172
3407.6	0.30721
3417.24	0.312569
3426.89	0.310597
3436.53	0.312208
3446.17	0.306385
3455.81	0.308895
3465.45	0.306603
3475.1	0.304793
3484.74	0.301742
3494.38	0.304719
3504.02	0.301451
3513.67	0.297085
3523.31	0.296646
3532.95	0.295334
3542.59	0.292755
3552.24	0.296055
3561.88	0.29197
3571.52	0.290307
3581.16	0.291822
3590.8	0.292774
3600.45	0.289334
3610.09	0.291473
3619.73	0.289477
3629.37	0.288295
3639.02	0.289875
3648.66	0.296758
3658.3	0.293556
3667.94	0.294289
3677.59	0.29444
3687.23	0.299339
3696.87	0.296124
3706.51	0.295316
3716.16	0.304522
3725.8	0.29653
3735.44	0.30547
3745.08	0.310083
3754.72	0.307661
3764.37	0.301906
3774.01	0.310957
3783.65	0.309805
3793.29	0.302547
3802.94	0.307431
3812.58	0.311843
3822.22	0.312202
3831.86	0.314505
3841.51	0.309493
3851.15	0.309879
3860.79	0.312959
3870.43	0.318965
3880.07	0.316329
3889.72	0.316211
3899.36	0.312652
3909	0.31627
3918.64	0.320439
3928.29	0.317861
3937.93	0.319154
3947.57	0.320657
3957.21	0.320596
3966.86	0.323165
3976.5	0.323625
3986.14	0.320777
3995.78	0.325365
