Measurement: Infrared, Infrared Data Processed
Mineral: Destinezite
Rruff sample: R050631
Ideal chemistry: Fe^3+^_2_(PO_4_)(S^6+^O_4_)(OH)6H_2_O
Locality: Patagonia Mountains, Arizona, USA
Source: University of Arizona Mineral Museum
Description: Colorless acicular crystal
x	intensity
374.123	0.247302
383.765	0.270469
393.407	0.306841
403.05	0.278932
412.692	0.244108
422.334	0.217069
431.976	0.198234
441.619	0.185118
451.261	0.189278
460.904	0.1966
470.546	0.204683
480.188	0.20463
489.83	0.202429
499.473	0.191373
509.115	0.180084
518.758	0.185988
528.4	0.198391
538.042	0.196951
547.684	0.196842
557.327	0.195614
566.969	0.166807
576.611	0.157429
586.254	0.165937
595.896	0.185068
605.538	0.192755
615.181	0.181057
624.823	0.159
634.466	0.155396
644.108	0.150977
653.75	0.133814
663.393	0.120476
673.035	0.113401
682.677	0.109693
692.319	0.10704
701.962	0.106167
711.604	0.106787
721.246	0.109281
730.889	0.111371
740.531	0.11285
750.173	0.111133
759.816	0.106993
769.458	0.103094
779.101	0.101878
788.743	0.102715
798.385	0.103824
808.028	0.105563
817.67	0.108891
827.312	0.112724
836.955	0.115926
846.597	0.115539
856.239	0.108384
865.881	0.100354
875.524	0.0972247
885.166	0.100643
894.808	0.11114
904.451	0.128138
914.093	0.150269
923.736	0.173976
933.378	0.20355
943.02	0.24705
952.663	0.314477
962.305	0.415182
971.947	0.500946
981.59	0.417097
991.232	0.458875
1000.87	0.50142
1010.52	0.39192
1020.16	0.417665
1029.8	0.514973
1039.44	0.438317
1049.09	0.396495
1058.73	0.350226
1068.37	0.307201
1078.01	0.271884
1087.65	0.253401
1097.3	0.26822
1106.94	0.298086
1116.58	0.301405
1126.22	0.247198
1135.87	0.185843
1145.51	0.146746
1155.15	0.132848
1164.79	0.134174
1174.44	0.121713
1184.08	0.0894232
1193.72	0.0600714
1203.36	0.0431354
1213.01	0.0334371
1222.65	0.027505
1232.29	0.0229575
1241.93	0.0198463
1251.58	0.0176023
1261.22	0.0161863
1270.86	0.0154339
1280.5	0.0152699
1290.14	0.0150592
1299.79	0.0149584
1309.43	0.0147011
1319.07	0.014889
1328.71	0.0151188
1338.36	0.015398
1348	0.0154784
1357.64	0.0159192
1367.28	0.0162621
1376.92	0.0167343
1386.57	0.01742
1396.21	0.0179807
1405.85	0.0187087
1415.49	0.019784
1425.14	0.0211154
1434.78	0.022092
1444.42	0.0224905
1454.06	0.0228211
1463.71	0.0231128
1473.35	0.0239181
1482.99	0.0242695
1492.63	0.0253898
1502.28	0.0266388
1511.92	0.0285899
1521.56	0.0312648
1531.2	0.0339123
1540.85	0.0379598
1550.49	0.040492
1560.13	0.043279
1569.77	0.0428059
1579.41	0.0424538
1589.06	0.0432769
1598.7	0.0471382
1608.34	0.0540422
1617.98	0.0653965
1627.63	0.0804511
1637.27	0.0940134
1646.91	0.0884865
1656.55	0.0693354
1666.19	0.0591182
1675.84	0.0559351
1685.48	0.0493403
1695.12	0.0377493
1704.77	0.027407
1714.41	0.0220809
1724.05	0.0186203
1733.69	0.0164357
1743.33	0.014259
1752.98	0.0129922
1762.62	0.0129162
1772.26	0.0129635
1781.9	0.0121403
1791.55	0.0125021
1801.19	0.0124577
1810.83	0.012116
1820.47	0.0123813
1830.12	0.0122422
1839.76	0.0118379
1849.4	0.0118681
1859.04	0.0116385
1868.68	0.0112325
1878.33	0.0110384
1887.97	0.0112476
1897.61	0.0109335
1907.25	0.0116871
1916.9	0.0113248
1926.54	0.0109419
1936.18	0.0111388
1945.82	0.0102882
1955.46	0.0105711
1965.11	0.0120671
1974.75	0.0123174
1984.39	0.0135985
1994.04	0.013269
2003.68	0.0124615
2013.32	0.0150612
2022.96	0.01453
2032.6	0.0154989
2042.25	0.0163548
2051.89	0.0162933
2061.53	0.0157304
2071.17	0.0162882
2080.82	0.0167372
2090.46	0.0164925
2100.1	0.0180201
2109.74	0.0176824
2119.39	0.0176365
2129.03	0.0173162
2138.67	0.0182972
2148.31	0.0183396
2157.95	0.0185445
2167.6	0.0216727
2177.24	0.0212599
2186.88	0.0219379
2196.52	0.0222694
2206.17	0.0222044
2215.81	0.0216127
2225.45	0.0223109
2235.09	0.0231039
2244.74	0.0234741
2254.38	0.0240338
2264.02	0.0250232
2273.66	0.0255746
2283.3	0.0258529
2292.95	0.0266871
2302.59	0.0275706
2312.23	0.0279357
2321.87	0.0293815
2331.52	0.0288706
2341.16	0.0291082
2350.8	0.0292981
2360.44	0.030622
2370.09	0.0307823
2379.73	0.0310395
2389.37	0.0320009
2399.01	0.0325816
2408.66	0.0332286
2418.3	0.0337568
2427.94	0.0343288
2437.58	0.0342803
2447.22	0.0344248
2456.87	0.0340766
2466.51	0.0340965
2476.15	0.0341807
2485.79	0.0340379
2495.44	0.0338838
2505.08	0.0332755
2514.72	0.033639
2524.36	0.0328429
2534.01	0.0335533
2543.65	0.0334301
2553.29	0.0342536
2562.93	0.0345573
2572.57	0.0354011
2582.22	0.0365574
2591.86	0.0371213
2601.5	0.0382993
2611.14	0.0400674
2620.79	0.0410174
2630.43	0.0422644
2640.07	0.0435846
2649.71	0.0450011
2659.36	0.0468213
2669	0.0478822
2678.64	0.0498006
2688.28	0.0519706
2697.93	0.0537928
2707.57	0.0558305
2717.21	0.0582829
2726.85	0.0606549
2736.49	0.0632066
2746.14	0.0663103
2755.78	0.0691594
2765.42	0.0720675
2775.06	0.0755106
2784.71	0.0793287
2794.35	0.0826426
2803.99	0.0869859
2813.63	0.0912396
2823.28	0.0951675
2832.92	0.0999175
2842.56	0.104749
2852.2	0.109551
2861.84	0.114862
2871.49	0.120072
2881.13	0.125296
2890.77	0.13114
2900.41	0.137135
2910.06	0.143131
2919.7	0.149497
2929.34	0.155966
2938.98	0.161582
2948.62	0.168963
2958.27	0.17586
2967.91	0.182292
2977.55	0.189311
2987.2	0.197578
2996.84	0.204918
3006.48	0.213515
3016.12	0.221462
3025.76	0.230577
3035.41	0.239842
3045.05	0.249241
3054.69	0.260546
3064.33	0.271505
3073.98	0.28243
3083.62	0.293301
3093.26	0.303731
3102.9	0.314412
3112.55	0.322312
3122.19	0.327508
3131.83	0.330452
3141.47	0.332202
3151.11	0.330866
3160.76	0.329043
3170.4	0.326331
3180.04	0.322341
3189.68	0.318352
3199.33	0.31331
3208.97	0.309566
3218.61	0.304325
3228.25	0.298293
3237.9	0.29316
3247.54	0.286593
3257.18	0.281538
3266.82	0.277001
3276.47	0.272789
3286.11	0.268399
3295.75	0.265943
3305.39	0.26335
3315.03	0.260455
3324.68	0.258962
3334.32	0.25694
3343.96	0.254826
3353.6	0.251714
3363.25	0.248042
3372.89	0.243217
3382.53	0.235661
3392.17	0.227614
3401.82	0.217661
3411.46	0.208527
3421.1	0.197378
3430.74	0.185906
3440.39	0.174069
3450.03	0.162276
3459.67	0.148801
3469.31	0.135953
3478.95	0.122343
3488.6	0.109885
3498.24	0.0974934
3507.88	0.0887574
3517.52	0.082286
3527.17	0.0765142
3536.81	0.0732421
3546.45	0.0675594
3556.09	0.0613909
3565.74	0.0531175
3575.38	0.0445448
3585.02	0.0371752
3594.66	0.0297803
3604.3	0.022105
3613.95	0.0189546
3623.59	0.0152294
3633.23	0.0113085
3642.87	0.0100869
3652.52	0.0085198
3662.16	0.00675048
3671.8	0.00667529
3681.44	0.00595892
3691.09	0.00777697
3700.73	0.00656195
3710.37	0.00567844
3720.01	0.00503134
3729.66	0.00522291
3739.3	0.00521658
3748.94	0.00584569
3758.58	0.00482554
3768.22	0.00602294
3777.87	0.00559314
3787.51	0.00554784
3797.15	0.00637729
3806.79	0.00630285
3816.44	0.00699275
3826.08	0.00643806
3835.72	0.00783449
3845.36	0.0067015
3855.01	0.00859901
3864.65	0.00794822
3874.29	0.00712277
3883.93	0.00812335
3893.57	0.00638285
3903.22	0.00706956
3912.86	0.00773459
3922.5	0.00792656
3932.14	0.0083108
3941.79	0.00722938
3951.43	0.00772658
3961.07	0.00751809
3970.71	0.00760517
3980.36	0.00659845
3990	0.00741578
3999.64	0.00741624
