Measurement: Infrared, Infrared Data Processed
Mineral: Diopside
Rruff sample: R060085
Ideal chemistry: CaMgSi_2_O_6_
Locality: Tyrol, Austria
Source: University of Arizona Mineral Museum
Description: Brownish-green massive
Measured chemistry: (Ca_0.97_Na_0.03_)_Σ=1_(Mg_0.79_Fe^2+^_0.10_Fe^3+^_0.04_Al_0.04_Ti_0.02_Cr_0.01_)_Σ=1_(Si_1.90_Al_0.10_)_Σ=2_O_6_
x	intensity
399.193	0.297931
408.835	0.301926
418.477	0.264917
428.12	0.297335
437.762	0.316658
447.404	0.32855
457.047	0.323968
466.689	0.302532
476.331	0.276635
485.974	0.245007
495.616	0.234677
505.258	0.235889
514.901	0.201094
524.543	0.159044
534.185	0.136517
543.828	0.123413
553.47	0.110494
563.112	0.096557
572.755	0.0845604
582.397	0.0763569
592.039	0.0757955
601.682	0.0851231
611.324	0.103421
620.966	0.127509
630.609	0.151321
640.251	0.134961
649.893	0.113642
659.536	0.106283
669.178	0.10777
678.82	0.0928318
688.463	0.0784082
698.105	0.0736135
707.747	0.0704692
717.39	0.0703607
727.032	0.0724145
736.674	0.0783968
746.317	0.0873161
755.959	0.0971196
765.601	0.100981
775.244	0.10421
784.886	0.114654
794.528	0.128842
804.171	0.148738
813.813	0.176839
823.455	0.203417
833.098	0.23328
842.74	0.274593
852.382	0.311285
862.025	0.318941
871.667	0.309623
881.309	0.293035
890.952	0.278272
900.594	0.271572
910.236	0.272209
919.879	0.270236
929.521	0.24378
939.163	0.253898
948.806	0.318397
958.448	0.360098
968.09	0.327407
977.733	0.276045
987.375	0.245408
997.017	0.232709
1006.66	0.216155
1016.3	0.19261
1025.94	0.177574
1035.59	0.177732
1045.23	0.189264
1054.87	0.201969
1064.51	0.204319
1074.16	0.189957
1083.8	0.152474
1093.44	0.115133
1103.08	0.0857446
1112.72	0.0614921
1122.37	0.0422136
1132.01	0.0286515
1141.65	0.0206575
1151.3	0.0169868
1160.94	0.0149806
1170.58	0.0137538
1180.22	0.012741
1189.86	0.0122146
1199.51	0.011717
1209.15	0.0113266
1218.79	0.0107043
1228.43	0.0104983
1238.08	0.0104248
1247.72	0.0105059
1257.36	0.0106268
1267	0.0110321
1276.64	0.0121916
1286.29	0.0123929
1295.93	0.0121365
1305.57	0.0121807
1315.21	0.0122324
1324.86	0.012287
1334.5	0.0126171
1344.14	0.0132409
1353.78	0.0139168
1363.43	0.0145758
1373.07	0.0160912
1382.71	0.0173044
1392.35	0.0177884
1401.99	0.0184081
1411.64	0.0188784
1421.28	0.0185871
1430.92	0.0191516
1440.57	0.0194948
1450.21	0.019213
1459.85	0.018773
1469.49	0.0190436
1479.13	0.0196497
1488.78	0.0191386
1498.42	0.0192616
1508.06	0.0178039
1517.7	0.0187117
1527.35	0.0192101
1536.99	0.0188883
1546.63	0.0198107
1556.27	0.0182029
1565.91	0.0194563
1575.56	0.0175531
1585.2	0.0195583
1594.84	0.0200879
1604.48	0.020154
1614.13	0.0200309
1623.77	0.0202692
1633.41	0.0207233
1643.05	0.0216057
1652.7	0.0171172
1662.34	0.0204579
1671.98	0.0199959
1681.62	0.0191383
1691.27	0.0191703
1700.91	0.0158187
1710.55	0.0181889
1720.19	0.0168671
1729.84	0.0166254
1739.48	0.0148664
1749.12	0.0145846
1758.76	0.0158156
1768.4	0.0156909
1778.05	0.0163742
1787.69	0.0169219
1797.33	0.0166684
1806.97	0.0169171
1816.62	0.0166302
1826.26	0.0169756
1835.9	0.0168505
1845.54	0.0165749
1855.18	0.0174679
1864.83	0.017516
1874.47	0.0173853
1884.11	0.0173925
1893.75	0.0173631
1903.4	0.0174701
1913.04	0.017904
1922.68	0.0175707
1932.32	0.0176147
1941.97	0.0169577
1951.61	0.0172614
1961.25	0.018958
1970.89	0.0179766
1980.54	0.0209365
1990.18	0.0187493
1999.82	0.0193612
2009.46	0.0190633
2019.11	0.0201439
2028.75	0.0200292
2038.39	0.0219522
2048.03	0.021834
2057.67	0.022035
2067.32	0.0209168
2076.96	0.0217842
2086.6	0.0216713
2096.24	0.0215401
2105.89	0.0220441
2115.53	0.0221278
2125.17	0.0211753
2134.81	0.0200556
2144.45	0.0206108
2154.1	0.0205732
2163.74	0.0254879
2173.38	0.024143
2183.02	0.0256859
2192.67	0.0246296
2202.31	0.0255411
2211.95	0.025844
2221.59	0.0270521
2231.24	0.0264495
2240.88	0.0268283
2250.52	0.0273286
2260.16	0.0276057
2269.8	0.0275009
2279.45	0.027999
2289.09	0.0281222
2298.73	0.0270811
2308.38	0.0272977
2318.02	0.0282012
2327.66	0.02715
2337.3	0.0271282
2346.94	0.027044
2356.59	0.0270623
2366.23	0.0272606
2375.87	0.0271582
2385.51	0.0275517
2395.16	0.0272593
2404.8	0.0273697
2414.44	0.0280363
2424.08	0.0280498
2433.72	0.0283286
2443.37	0.0289498
2453.01	0.0289581
2462.65	0.0286533
2472.29	0.0289166
2481.94	0.0289736
2491.58	0.0289817
2501.22	0.0289912
2510.86	0.0296942
2520.51	0.0293862
2530.15	0.0295231
2539.79	0.0293653
2549.43	0.0299608
2559.07	0.0298577
2568.72	0.0304954
2578.36	0.0306337
2588	0.0305625
2597.64	0.0309347
2607.29	0.0314516
2616.93	0.0321046
2626.57	0.0320332
2636.21	0.0321635
2645.86	0.0326303
2655.5	0.0326684
2665.14	0.0323036
2674.78	0.032534
2684.43	0.0333172
2694.07	0.0331033
2703.71	0.0335028
2713.35	0.0338387
2722.99	0.0340326
2732.64	0.0342623
2742.28	0.0343696
2751.92	0.0347599
2761.56	0.0352875
2771.21	0.0353713
2780.85	0.0356703
2790.49	0.0360633
2800.13	0.0361043
2809.78	0.03634
2819.42	0.036977
2829.06	0.0373789
2838.7	0.037496
2848.34	0.0357727
2857.99	0.0375287
2867.63	0.0385718
2877.27	0.0391095
2886.91	0.0388238
2896.56	0.0391949
2906.2	0.0396978
2915.84	0.0375661
2925.48	0.0396315
2935.13	0.0404568
2944.77	0.0408426
2954.41	0.0424623
2964.05	0.0427453
2973.7	0.0416057
2983.34	0.0420022
2992.98	0.0424553
3002.62	0.043024
3012.26	0.0437947
3021.91	0.0441465
3031.55	0.0443483
3041.19	0.0451436
3050.83	0.0457485
3060.48	0.0462581
3070.12	0.0465761
3079.76	0.0478075
3089.4	0.0481535
3099.05	0.048422
3108.69	0.0493498
3118.33	0.050101
3127.97	0.050828
3137.61	0.0509973
3147.26	0.0519521
3156.9	0.0522211
3166.54	0.0532943
3176.18	0.0535838
3185.83	0.0546438
3195.47	0.0544731
3205.11	0.0555081
3214.75	0.0561975
3224.4	0.056722
3234.04	0.0574579
3243.68	0.0578705
3253.32	0.0577424
3262.97	0.0587306
3272.61	0.0598091
3282.25	0.0596016
3291.89	0.0600734
3301.53	0.0606785
3311.18	0.0618027
3320.82	0.0620051
3330.46	0.0626851
3340.1	0.0640116
3349.75	0.0643005
3359.39	0.0652344
3369.03	0.0665315
3378.67	0.0676149
3388.32	0.0679223
3397.96	0.0689919
3407.6	0.0702367
3417.24	0.0705964
3426.89	0.0718761
3436.53	0.0722897
3446.17	0.0727222
3455.81	0.0730456
3465.45	0.0737566
3475.1	0.0735302
3484.74	0.0744936
3494.38	0.0742178
3504.02	0.0746842
3513.67	0.0744686
3523.31	0.074744
3532.95	0.0762131
3542.59	0.0772102
3552.24	0.0785863
3561.88	0.0798063
3571.52	0.0812968
3581.16	0.0815704
3590.8	0.0831322
3600.45	0.0838134
3610.09	0.0822268
3619.73	0.0830496
3629.37	0.0823929
3639.02	0.0856763
3648.66	0.0805168
3658.3	0.0831227
3667.94	0.081044
3677.59	0.0763788
3687.23	0.0591293
3696.87	0.0492435
3706.51	0.0419595
3716.16	0.0397496
3725.8	0.038379
3735.44	0.0341653
3745.08	0.0315554
3754.72	0.0380896
3764.37	0.0387677
3774.01	0.0395774
3783.65	0.0400662
3793.29	0.0403392
3802.94	0.0374682
3812.58	0.0405862
3822.22	0.0374185
3831.86	0.0392683
3841.51	0.0397793
3851.15	0.0355364
3860.79	0.0403006
3870.43	0.0383301
3880.07	0.0398404
3889.72	0.0396284
3899.36	0.0397597
3909	0.0421368
3918.64	0.0401966
3928.29	0.0413053
3937.93	0.041303
3947.57	0.0411654
3957.21	0.0421665
3966.86	0.0426887
3976.5	0.0426786
3986.14	0.0437066
3995.78	0.0434765
