Measurement: Infrared, Infrared Data Processed
Mineral: Diopside
Rruff sample: R050406
Ideal chemistry: CaMgSi_2_O_6_
Locality: unknown
Source: University of Arizona Mineral Museum
Description: Brownish gray massive
Measured chemistry: (Ca_0.95_Na_0.05_)(Mg_0.75_Fe^2+^_0.18_Fe^3+^_0.05_Al_0.01_Ti_0.01_Mn^2+^_0.01_)(Si_0.98_Al_0.02_)_2_O_6_
x	intensity
399.193	0.219795
408.835	0.196704
418.477	0.166195
428.12	0.188721
437.762	0.221766
447.404	0.265408
457.047	0.271324
466.689	0.267175
476.331	0.246585
485.974	0.215529
495.616	0.208597
505.258	0.212349
514.901	0.183356
524.543	0.149592
534.185	0.127489
543.828	0.10669
553.47	0.0867722
563.112	0.0675698
572.755	0.0504105
582.397	0.0384392
592.039	0.0342389
601.682	0.0360432
611.324	0.0466976
620.966	0.0688148
630.609	0.101857
640.251	0.0748412
649.893	0.0470815
659.536	0.0465933
669.178	0.0673054
678.82	0.0555944
688.463	0.0401454
698.105	0.0378852
707.747	0.0353854
717.39	0.0350586
727.032	0.0358808
736.674	0.0384578
746.317	0.0426335
755.959	0.048486
765.601	0.0556058
775.244	0.0659371
784.886	0.077867
794.528	0.0950436
804.171	0.118477
813.813	0.154397
823.455	0.202327
833.098	0.258455
842.74	0.324843
852.382	0.372001
862.025	0.371364
871.667	0.345726
881.309	0.310596
890.952	0.284616
900.594	0.26983
910.236	0.262327
919.879	0.243
929.521	0.195788
939.163	0.183899
948.806	0.228538
958.448	0.265099
968.09	0.238455
977.733	0.185017
987.375	0.149996
997.017	0.125688
1006.66	0.112717
1016.3	0.108303
1025.94	0.124015
1035.59	0.158151
1045.23	0.205822
1054.87	0.258505
1064.51	0.27456
1074.16	0.241011
1083.8	0.182919
1093.44	0.134113
1103.08	0.0966188
1112.72	0.065316
1122.37	0.0419402
1132.01	0.0276695
1141.65	0.0175818
1151.3	0.0122596
1160.94	0.00891833
1170.58	0.00799218
1180.22	0.00660589
1189.86	0.00581327
1199.51	0.00503476
1209.15	0.00424139
1218.79	0.00362176
1228.43	0.0032672
1238.08	0.00275918
1247.72	0.0024782
1257.36	0.00267705
1267	0.00225445
1276.64	0.00263918
1286.29	0.00291641
1295.93	0.00263689
1305.57	0.00307086
1315.21	0.00364302
1324.86	0.00358787
1334.5	0.00355067
1344.14	0.00387395
1353.78	0.00470338
1363.43	0.00505628
1373.07	0.00677046
1382.71	0.00794103
1392.35	0.0104214
1401.99	0.0122815
1411.64	0.0140638
1421.28	0.0152997
1430.92	0.0155649
1440.57	0.0151382
1450.21	0.0146422
1459.85	0.0137955
1469.49	0.0143627
1479.13	0.0160477
1488.78	0.016215
1498.42	0.0162543
1508.06	0.0160852
1517.7	0.0150611
1527.35	0.0142718
1536.99	0.0134935
1546.63	0.0125123
1556.27	0.0120386
1565.91	0.0115172
1575.56	0.0107847
1585.2	0.01062
1594.84	0.0101713
1604.48	0.00923344
1614.13	0.00889959
1623.77	0.00896087
1633.41	0.00947467
1643.05	0.00914245
1652.7	0.00932452
1662.34	0.00878239
1671.98	0.00757139
1681.62	0.00721266
1691.27	0.00592637
1700.91	0.00524016
1710.55	0.00419821
1720.19	0.00354414
1729.84	0.00257206
1739.48	-0.000814475
1749.12	-0.000731508
1758.76	0.00410558
1768.4	0.00543943
1778.05	0.00628368
1787.69	0.00606549
1797.33	0.00563775
1806.97	0.00612561
1816.62	0.00533674
1826.26	0.00584589
1835.9	0.006095
1845.54	0.00710107
1855.18	0.00647047
1864.83	0.00491073
1874.47	0.00627162
1884.11	0.0075746
1893.75	0.00583846
1903.4	0.00576987
1913.04	0.00384982
1922.68	0.0056822
1932.32	0.00446562
1941.97	0.00438356
1951.61	0.00363651
1961.25	0.00196583
1970.89	0.00346116
1980.54	0.00382599
1990.18	0.00514496
1999.82	0.0013591
2009.46	0.00236525
2019.11	0.00278671
2028.75	0.0062895
2038.39	0.00494556
2048.03	0.00538498
2057.67	0.00580146
2067.32	0.00464964
2076.96	0.00499291
2086.6	0.00504182
2096.24	0.00509382
2105.89	0.00626276
2115.53	0.00476245
2125.17	0.00273405
2134.81	0.000523657
2144.45	-0.00320748
2154.1	-0.00515247
2163.74	0.00654837
2173.38	0.0020865
2183.02	0.00492021
2192.67	0.00655479
2202.31	0.00905116
2211.95	0.00711845
2221.59	0.0100871
2231.24	0.00958703
2240.88	0.0107384
2250.52	0.011434
2260.16	0.0120552
2269.8	0.0133557
2279.45	0.015458
2289.09	0.0146704
2298.73	0.0144653
2308.38	0.014304
2318.02	0.0151305
2327.66	0.0136112
2337.3	0.0142023
2346.94	0.013457
2356.59	0.0135392
2366.23	0.0141904
2375.87	0.0144346
2385.51	0.0149315
2395.16	0.0131906
2404.8	0.0140675
2414.44	0.0143998
2424.08	0.0149563
2433.72	0.0146697
2443.37	0.014747
2453.01	0.0161656
2462.65	0.0155835
2472.29	0.0141585
2481.94	0.0149396
2491.58	0.0157556
2501.22	0.0150133
2510.86	0.0161092
2520.51	0.0158893
2530.15	0.015574
2539.79	0.0151372
2549.43	0.0151118
2559.07	0.0177701
2568.72	0.0167964
2578.36	0.0171149
2588	0.0186443
2597.64	0.0177397
2607.29	0.0169508
2616.93	0.0174016
2626.57	0.0178827
2636.21	0.0184819
2645.86	0.0178447
2655.5	0.0181527
2665.14	0.0174169
2674.78	0.0176035
2684.43	0.0181556
2694.07	0.0184873
2703.71	0.018036
2713.35	0.0189578
2722.99	0.020099
2732.64	0.0186835
2742.28	0.0182787
2751.92	0.0189701
2761.56	0.0206367
2771.21	0.0189261
2780.85	0.0217041
2790.49	0.0190209
2800.13	0.0201063
2809.78	0.0212885
2819.42	0.0207834
2829.06	0.0200961
2838.7	0.0195565
2848.34	0.0207301
2857.99	0.0201846
2867.63	0.0218571
2877.27	0.0230031
2886.91	0.0204144
2896.56	0.0205985
2906.2	0.0207161
2915.84	0.022512
2925.48	0.0216077
2935.13	0.0239983
2944.77	0.0242192
2954.41	0.0246136
2964.05	0.0261895
2973.7	0.0227339
2983.34	0.0257651
2992.98	0.0256471
3002.62	0.0274301
3012.26	0.0262736
3021.91	0.0283067
3031.55	0.0242242
3041.19	0.0273427
3050.83	0.0268792
3060.48	0.0253891
3070.12	0.0250725
3079.76	0.0263553
3089.4	0.0283643
3099.05	0.027174
3108.69	0.0270728
3118.33	0.026701
3127.97	0.0263806
3137.61	0.027311
3147.26	0.0295485
3156.9	0.0271988
3166.54	0.0267573
3176.18	0.0288715
3185.83	0.0282769
3195.47	0.0286796
3205.11	0.0288626
3214.75	0.0296233
3224.4	0.031288
3234.04	0.0296283
3243.68	0.0305977
3253.32	0.0294424
3262.97	0.0297078
3272.61	0.0311604
3282.25	0.028675
3291.89	0.0327744
3301.53	0.0319174
3311.18	0.031344
3320.82	0.0317363
3330.46	0.0337347
3340.1	0.03168
3349.75	0.0306211
3359.39	0.0329308
3369.03	0.0331221
3378.67	0.034503
3388.32	0.0328061
3397.96	0.0322318
3407.6	0.0326052
3417.24	0.034751
3426.89	0.0332494
3436.53	0.0338837
3446.17	0.0331421
3455.81	0.0326464
3465.45	0.0309616
3475.1	0.0328811
3484.74	0.030991
3494.38	0.0345564
3504.02	0.0325146
3513.67	0.0313308
3523.31	0.0338742
3532.95	0.0349868
3542.59	0.0292973
3552.24	0.0361466
3561.88	0.0316572
3571.52	0.0297432
3581.16	0.0294844
3590.8	0.0336593
3600.45	0.0288621
3610.09	0.0304664
3619.73	0.028438
3629.37	0.0309787
3639.02	0.0282159
3648.66	0.0286941
3658.3	0.026261
3667.94	0.0252008
3677.59	0.0272745
3687.23	0.0289261
3696.87	0.0219411
3706.51	0.0294525
3716.16	0.0264434
3725.8	0.0283549
3735.44	0.0334665
3745.08	0.0320808
3754.72	0.0310972
3764.37	0.0288751
3774.01	0.0307569
3783.65	0.0278141
3793.29	0.031162
3802.94	0.0302272
3812.58	0.0272615
3822.22	0.029208
3831.86	0.0306926
3841.51	0.0311625
3851.15	0.0324974
3860.79	0.0309895
3870.43	0.0285086
3880.07	0.0334068
3889.72	0.0294847
3899.36	0.0310392
3909	0.0294567
3918.64	0.0293757
3928.29	0.037002
3937.93	0.0332029
3947.57	0.032376
3957.21	0.0346034
3966.86	0.0308709
3976.5	0.0312328
3986.14	0.0342422
3995.78	0.0318931
