Measurement: Infrared, Infrared Data Processed
Mineral: Diopside
Rruff sample: R060061
Ideal chemistry: CaMgSi_2_O_6_
Locality: Oka, near Montreal, Quebec, Canada
Source: University of Arizona Mineral Museum
Description: Pale green prismatic single crystal
Measured chemistry: (Ca_0.99_Mn_0.01_)_Σ=1_(Mg_0.92_Fe^2+^_0.06_Mn_0.02_)_Σ=1_(Si_1.99_Al_0.01_)_Σ=2_O_6_
x	intensity
374.123	0.16916
383.765	0.197254
393.407	0.176726
403.05	0.160848
412.692	0.129897
422.334	0.110476
431.976	0.125905
441.619	0.152951
451.261	0.180315
460.904	0.190438
470.546	0.197695
480.188	0.186473
489.83	0.160483
499.473	0.169064
509.115	0.167491
518.758	0.138994
528.4	0.113818
538.042	0.0961308
547.684	0.0801353
557.327	0.0628165
566.969	0.0465002
576.611	0.0315379
586.254	0.023255
595.896	0.0227437
605.538	0.0270373
615.181	0.0343359
624.823	0.0555422
634.466	0.0647425
644.108	0.0354385
653.75	0.0251212
663.393	0.0330565
673.035	0.050256
682.677	0.0245868
692.319	0.020198
701.962	0.0204544
711.604	0.0249172
721.246	0.0225266
730.889	0.0245402
740.531	0.0284497
750.173	0.0330914
759.816	0.0390542
769.458	0.0459969
779.101	0.0543904
788.743	0.0643172
798.385	0.0773546
808.028	0.0939235
817.67	0.115226
827.312	0.140614
836.955	0.171457
846.597	0.206602
856.239	0.221762
865.881	0.220585
875.524	0.211198
885.166	0.182256
894.808	0.173128
904.451	0.1716
914.093	0.173307
923.736	0.155787
933.378	0.116411
943.02	0.13112
952.663	0.17157
962.305	0.186
971.947	0.155631
981.59	0.11807
991.232	0.0933095
1000.87	0.0705244
1010.52	0.056378
1020.16	0.0588335
1029.8	0.0783429
1039.44	0.108346
1049.09	0.147517
1058.73	0.181711
1068.37	0.188158
1078.01	0.16038
1087.65	0.123078
1097.3	0.0910062
1106.94	0.0654311
1116.58	0.0422175
1126.22	0.0262319
1135.87	0.0152663
1145.51	0.009651
1155.15	0.00758085
1164.79	0.00600499
1174.44	0.00491467
1184.08	0.0043079
1193.72	0.00388939
1203.36	0.00377791
1213.01	0.00369956
1222.65	0.00356148
1232.29	0.00381666
1241.93	0.00371761
1251.58	0.00375854
1261.22	0.00412153
1270.86	0.00428747
1280.5	0.00454972
1290.14	0.00490754
1299.79	0.00553505
1309.43	0.00618446
1319.07	0.0069981
1328.71	0.00762452
1338.36	0.00884849
1348	0.0104072
1357.64	0.0128831
1367.28	0.0162064
1376.92	0.0211354
1386.57	0.0279071
1396.21	0.0370713
1405.85	0.0453021
1415.49	0.0519517
1425.14	0.0537621
1434.78	0.0536652
1444.42	0.0531017
1454.06	0.0510168
1463.71	0.0477489
1473.35	0.044157
1482.99	0.0402844
1492.63	0.0359069
1502.28	0.0310378
1511.92	0.0261922
1521.56	0.02168
1531.2	0.0181196
1540.85	0.0149088
1550.49	0.0123063
1560.13	0.0102851
1569.77	0.00938252
1579.41	0.00845096
1589.06	0.00781297
1598.7	0.00683171
1608.34	0.00631456
1617.98	0.00602493
1627.63	0.00593415
1637.27	0.00591892
1646.91	0.00584093
1656.55	0.00572053
1666.19	0.00522971
1675.84	0.00503003
1685.48	0.00448607
1695.12	0.0042915
1704.77	0.00425957
1714.41	0.00371782
1724.05	0.00399432
1733.69	0.00328303
1743.33	0.00266416
1752.98	0.00334071
1762.62	0.00390478
1772.26	0.00407964
1781.9	0.00447697
1791.55	0.00535231
1801.19	0.00500435
1810.83	0.0045223
1820.47	0.00445495
1830.12	0.00426926
1839.76	0.00412947
1849.4	0.00463896
1859.04	0.00451124
1868.68	0.00485317
1878.33	0.00461015
1887.97	0.00439011
1897.61	0.00401245
1907.25	0.00428297
1916.9	0.00422897
1926.54	0.00428646
1936.18	0.00375904
1945.82	0.00374434
1955.46	0.00407094
1965.11	0.00441915
1974.75	0.0047594
1984.39	0.00685706
1994.04	0.00586154
2003.68	0.00459468
2013.32	0.00824392
2022.96	0.00580434
2032.6	0.00704515
2042.25	0.00680373
2051.89	0.00850307
2061.53	0.00662579
2071.17	0.00646919
2080.82	0.00717146
2090.46	0.0050469
2100.1	0.00618776
2109.74	0.0057938
2119.39	0.00531666
2129.03	0.00357901
2138.67	0.00339788
2148.31	0.00166789
2157.95	0.00279836
2167.6	0.00623011
2177.24	0.0062195
2186.88	0.00729556
2196.52	0.00845071
2206.17	0.00750811
2215.81	0.00824341
2225.45	0.0093678
2235.09	0.0104206
2244.74	0.00957977
2254.38	0.0099836
2264.02	0.00988078
2273.66	0.0103691
2283.3	0.0112754
2292.95	0.0103419
2302.59	0.0101732
2312.23	0.0101333
2321.87	0.0113246
2331.52	0.00878986
2341.16	0.00905418
2350.8	0.0090625
2360.44	0.00842771
2370.09	0.00834222
2379.73	0.00878343
2389.37	0.00897872
2399.01	0.00949596
2408.66	0.00946072
2418.3	0.00973916
2427.94	0.00993069
2437.58	0.00999637
2447.22	0.0103805
2456.87	0.0102359
2466.51	0.00990313
2476.15	0.0107666
2485.79	0.0102202
2495.44	0.0106123
2505.08	0.0107677
2514.72	0.0112868
2524.36	0.0107535
2534.01	0.0105213
2543.65	0.0105161
2553.29	0.0105564
2562.93	0.0107611
2572.57	0.0107933
2582.22	0.0109169
2591.86	0.0112435
2601.5	0.0111589
2611.14	0.0111608
2620.79	0.0116436
2630.43	0.0116341
2640.07	0.0117544
2649.71	0.0113306
2659.36	0.0110191
2669	0.0110149
2678.64	0.0107332
2688.28	0.0109344
2697.93	0.0105801
2707.57	0.0109583
2717.21	0.0105063
2726.85	0.0107044
2736.49	0.0111
2746.14	0.0109081
2755.78	0.0113401
2765.42	0.0110931
2775.06	0.0108888
2784.71	0.0111011
2794.35	0.0108695
2803.99	0.0107469
2813.63	0.0107321
2823.28	0.0106894
2832.92	0.0109241
2842.56	0.0101002
2852.2	0.00708321
2861.84	0.00911796
2871.49	0.0098351
2881.13	0.00997791
2890.77	0.0100002
2900.41	0.00905409
2910.06	0.00815444
2919.7	0.00559045
2929.34	0.00572083
2938.98	0.00836133
2948.62	0.00919079
2958.27	0.00975801
2967.91	0.0103101
2977.55	0.0110105
2987.2	0.0111746
2996.84	0.011054
3006.48	0.0116282
3016.12	0.0119254
3025.76	0.0115677
3035.41	0.0121647
3045.05	0.012134
3054.69	0.0125383
3064.33	0.0123648
3073.98	0.0124205
3083.62	0.0127788
3093.26	0.0133442
3102.9	0.0132755
3112.55	0.0133263
3122.19	0.0132721
3131.83	0.0139804
3141.47	0.0138659
3151.11	0.0132302
3160.76	0.0144256
3170.4	0.0140152
3180.04	0.0149746
3189.68	0.0143035
3199.33	0.0143466
3208.97	0.0138075
3218.61	0.0140391
3228.25	0.0147353
3237.9	0.0149257
3247.54	0.0140138
3257.18	0.015084
3266.82	0.0146533
3276.47	0.0143154
3286.11	0.0145134
3295.75	0.0147616
3305.39	0.0150185
3315.03	0.0150834
3324.68	0.0144551
3334.32	0.0147658
3343.96	0.0151846
3353.6	0.0150721
3363.25	0.0146312
3372.89	0.0146568
3382.53	0.0150332
3392.17	0.0147027
3401.82	0.0146551
3411.46	0.0154459
3421.1	0.0152914
3430.74	0.0152873
3440.39	0.014225
3450.03	0.0153664
3459.67	0.0151836
3469.31	0.0150495
3478.95	0.0148425
3488.6	0.0149808
3498.24	0.0152685
3507.88	0.0148716
3517.52	0.0148971
3527.17	0.0151475
3536.81	0.0148661
3546.45	0.0138373
3556.09	0.0149511
3565.74	0.0147204
3575.38	0.0144149
3585.02	0.0141074
3594.66	0.01408
3604.3	0.0146004
3613.95	0.014348
3623.59	0.0147889
3633.23	0.01472
3642.87	0.0141016
3652.52	0.0136663
3662.16	0.0134187
3671.8	0.0146605
3681.44	0.0145398
3691.09	0.0137295
3700.73	0.0150519
3710.37	0.0148187
3720.01	0.0142091
3729.66	0.0148474
3739.3	0.015224
3748.94	0.0141559
3758.58	0.014913
3768.22	0.0137173
3777.87	0.0147914
3787.51	0.0138512
3797.15	0.0140248
3806.79	0.0141102
3816.44	0.0139505
3826.08	0.0147751
3835.72	0.0141651
3845.36	0.0142387
3855.01	0.0138764
3864.65	0.0142066
3874.29	0.0137771
3883.93	0.0138075
3893.57	0.0139296
3903.22	0.0141448
3912.86	0.0148787
3922.5	0.0135833
3932.14	0.0138687
3941.79	0.013849
3951.43	0.0136145
3961.07	0.0137049
3970.71	0.0145315
3980.36	0.0142534
3990	0.014125
3999.64	0.0135068
