Measurement: Infrared, Infrared Data Processed
Mineral: Diopside
Rruff sample: R050496
Ideal chemistry: CaMgSi_2_O_6_
Locality: New City Quarry, Riverside, Riverside County, Calfornia, USA
Source: California Institute of Technology
Description: Aggregate of light green irregular grains
Measured chemistry: Ca(Mg_0.66_Fe_0.33_Mn_0.01_)(Si_0.95_Al_0.05_)_2_O_6_
x	intensity
395.336	0.093076
404.978	0.0843669
414.62	0.0710387
424.263	0.0659667
433.905	0.0755277
443.547	0.0909481
453.19	0.103899
462.832	0.112081
472.474	0.113821
482.117	0.104855
491.759	0.0950059
501.401	0.099526
511.044	0.0985209
520.686	0.0868657
530.328	0.0736941
539.971	0.0610154
549.613	0.0482301
559.255	0.0349779
568.898	0.0244595
578.54	0.0167708
588.182	0.0133256
597.825	0.0143456
607.467	0.0177065
617.109	0.0212521
626.752	0.0322004
636.394	0.0299291
646.036	0.0176362
655.679	0.0164966
665.321	0.0216828
674.963	0.0204231
684.606	0.0123138
694.248	0.0108958
703.89	0.0103605
713.533	0.0108289
723.175	0.0117941
732.817	0.0133368
742.46	0.0161434
752.102	0.0192177
761.744	0.022146
771.387	0.0259817
781.029	0.0295772
790.671	0.0329833
800.314	0.0375813
809.956	0.0463256
819.598	0.0576846
829.241	0.0693068
838.883	0.0837174
848.525	0.0994339
858.168	0.108714
867.81	0.109898
877.452	0.105185
887.095	0.0967311
896.737	0.0899759
906.379	0.0870014
916.022	0.0846803
925.664	0.0721096
935.306	0.0589385
944.949	0.0657583
954.591	0.0831263
964.233	0.0910845
973.876	0.0787559
983.518	0.0612794
993.16	0.0471243
1002.8	0.0376605
1012.45	0.0367592
1022.09	0.0424546
1031.73	0.0497523
1041.37	0.0615355
1051.01	0.077799
1060.66	0.0921653
1070.3	0.0936047
1079.94	0.078612
1089.58	0.0606646
1099.23	0.0440685
1108.87	0.0294007
1118.51	0.0181647
1128.15	0.0100062
1137.8	0.00519608
1147.44	0.00297861
1157.08	0.00189642
1166.72	0.00101309
1176.37	0.000686272
1186.01	0.000280228
1195.65	5.28994e-05
1205.29	-0.000412346
1214.93	-0.00038253
1224.58	-0.000521069
1234.22	-0.000611705
1243.86	-0.000419558
1253.5	-0.000282065
1263.15	-0.000342906
1272.79	-8.17814e-05
1282.43	0.000337187
1292.07	0.000198208
1301.71	0.000337559
1311.36	0.000680101
1321	0.000748013
1330.64	0.000313459
1340.28	0.00038508
1349.93	0.000537047
1359.57	0.000604108
1369.21	0.000678215
1378.85	0.00100743
1388.5	0.0015064
1398.14	0.00189146
1407.78	0.002351
1417.42	0.00325987
1427.07	0.00335056
1436.71	0.00398039
1446.35	0.00370698
1455.99	0.00429971
1465.63	0.00370652
1475.28	0.00345977
1484.92	0.00323802
1494.56	0.00299375
1504.2	0.00291787
1513.85	0.0023135
1523.49	0.00217044
1533.13	0.00178086
1542.77	0.0018554
1552.42	0.00141171
1562.06	0.0014114
1571.7	0.00103674
1581.34	0.00100449
1590.98	0.00106776
1600.63	0.000903466
1610.27	0.000861128
1619.91	0.000995147
1629.55	0.00116155
1639.2	0.000982183
1648.84	0.00116834
1658.48	0.000961267
1668.12	0.000942292
1677.77	0.000575696
1687.41	0.000587193
1697.05	0.000923229
1706.69	0.000784938
1716.34	0.00100076
1725.98	0.000177168
1735.62	0.000496762
1745.26	0.0001878
1754.9	0.000118053
1764.55	0.000267067
1774.19	0.00020509
1783.83	7.01286e-05
1793.47	0.000367667
1803.12	7.65328e-05
1812.76	0.000113856
1822.4	2.86145e-05
1832.04	-0.000122102
1841.69	-6.20701e-05
1851.33	2.69636e-05
1860.97	-0.000494848
1870.61	-0.000106413
1880.26	-0.000256569
1889.9	-0.000632576
1899.54	-0.000674328
1909.18	-0.000330221
1918.82	-0.000586843
1928.47	-0.000262761
1938.11	-0.000482797
1947.75	-0.0009718
1957.39	-0.000383254
1967.04	-0.000462752
1976.68	0.000241399
1986.32	0.000121495
1995.96	-0.000130304
2005.61	-0.0010159
2015.25	0.00164034
2024.89	0.000630078
2034.53	-0.00106663
2044.17	-0.000939924
2053.82	2.15664e-05
2063.46	-0.00118369
2073.1	-0.00118597
2082.74	-0.00112389
2092.39	-0.000823496
2102.03	-0.00110548
2111.67	-0.00159821
2121.31	-0.00119532
2130.96	-0.000402045
2140.6	-0.000857152
2150.24	-0.00283567
2159.88	-0.00263444
2169.53	-0.00239746
2179.17	-0.00184203
2188.81	-0.00232597
2198.45	-0.00045467
2208.09	-0.000791446
2217.74	0.00015694
2227.38	-0.000178368
2237.02	0.000952621
2246.66	0.000505305
2256.31	-3.2375e-05
2265.95	0.000330506
2275.59	0.00082175
2285.23	0.000534685
2294.88	0.000886313
2304.52	0.000828122
2314.16	0.000718674
2323.8	0.000924036
2333.45	0.00158872
2343.09	0.001914
2352.73	0.00192841
2362.37	0.00291312
2372.01	0.00199763
2381.66	0.00128264
2391.3	0.0013959
2400.94	0.00148905
2410.58	0.00153682
2420.23	0.00106867
2429.87	0.00152534
2439.51	0.00141764
2449.15	0.000920877
2458.8	0.00129605
2468.44	0.00161178
2478.08	0.00109712
2487.72	0.00133607
2497.36	0.00124509
2507.01	0.00145325
2516.65	0.00140216
2526.29	0.00164325
2535.93	0.000918104
2545.58	0.00133802
2555.22	0.00120241
2564.86	0.00053322
2574.5	0.00055206
2584.14	0.000729775
2593.79	0.00116363
2603.43	0.00115814
2613.07	0.00122756
2622.72	0.00147607
2632.36	0.0013777
2642	0.0011829
2651.64	0.00167035
2661.28	0.00176204
2670.93	0.00202819
2680.57	0.00194418
2690.21	0.00194695
2699.85	0.00213427
2709.5	0.00216351
2719.14	0.00189195
2728.78	0.00200983
2738.42	0.00204935
2748.07	0.00254971
2757.71	0.00210445
2767.35	0.00205932
2776.99	0.00266258
2786.63	0.00266938
2796.28	0.002515
2805.92	0.00256566
2815.56	0.00242517
2825.2	0.00279724
2834.85	0.00273983
2844.49	0.00239251
2854.13	0.00317135
2863.77	0.00320335
2873.41	0.00306285
2883.06	0.00277974
2892.7	0.00232869
2902.34	0.00305787
2911.99	0.00307479
2921.63	0.00350492
2931.27	0.0032332
2940.91	0.00316618
2950.55	0.00386324
2960.2	0.00348251
2969.84	0.00283207
2979.48	0.00265102
2989.12	0.00253624
2998.77	0.00270652
3008.41	0.00227699
3018.05	0.00334745
3027.69	0.00238817
3037.34	0.00291258
3046.98	0.00280033
3056.62	0.0029179
3066.26	0.00289219
3075.9	0.00223064
3085.55	0.00240446
3095.19	0.00286731
3104.83	0.00257196
3114.47	0.0023886
3124.12	0.00292237
3133.76	0.00299915
3143.4	0.00248899
3153.04	0.00277235
3162.68	0.0029224
3172.33	0.00257651
3181.97	0.00360795
3191.61	0.00226817
3201.26	0.00231064
3210.9	0.00326264
3220.54	0.00263826
3230.18	0.00249382
3239.82	0.00223366
3249.47	0.00254674
3259.11	0.00238439
3268.75	0.00269766
3278.39	0.00211265
3288.04	0.0019066
3297.68	0.00190545
3307.32	0.0021865
3316.96	0.001621
3326.61	0.00233677
3336.25	0.00178323
3345.89	0.00255608
3355.53	0.00158126
3365.17	0.00215176
3374.82	0.00302488
3384.46	0.00206109
3394.1	0.00260542
3403.74	0.00159824
3413.39	0.0024709
3423.03	0.00179793
3432.67	0.00132622
3442.31	0.00237868
3451.95	0.00252505
3461.6	0.00174515
3471.24	0.0023432
3480.88	0.00119231
3490.53	0.00167991
3500.17	0.00177321
3509.81	0.00251532
3519.45	0.00144304
3529.09	0.00278111
3538.74	0.000397894
3548.38	0.00109282
3558.02	0.00142881
3567.66	0.00218071
3577.31	0.00125958
3586.95	0.0019858
3596.59	0.00238406
3606.23	0.00159601
3615.88	0.00101652
3625.52	0.000760297
3635.16	0.000263457
3644.8	0.00112845
3654.44	0.000278098
3664.09	-0.000195186
3673.73	0.00119649
3683.37	0.000268098
3693.01	-0.00109731
3702.66	-4.02512e-05
3712.3	0.000197994
3721.94	-0.000845236
3731.58	0.000429219
3741.22	-9.17329e-05
3750.87	0.00136435
3760.51	-0.000495343
3770.15	-7.13903e-05
3779.8	3.90918e-05
3789.44	-0.00128661
3799.08	-0.000479064
3808.72	-4.6125e-05
3818.36	-0.000508084
3828.01	0.000251452
3837.65	0.000688992
3847.29	-0.000120663
3856.93	-8.6182e-05
3866.58	-0.000413531
3876.22	3.14724e-05
3885.86	0.000307667
3895.5	-7.12846e-05
3905.14	-0.000669463
3914.79	-0.000605185
3924.43	-0.000914378
3934.07	-0.000782352
3943.71	-0.000265055
3953.36	-0.000359646
3963	-0.00132365
3972.64	-0.000957518
3982.28	-0.00163955
3991.93	-0.000760972
