Measurement: Infrared, Infrared Data Processed
Mineral: Dolomite
Rruff sample: R050129
Ideal chemistry: CaMg(CO_3_)_2_
Locality: Black Cloud mine, Leadville, Lake County, Colorado, USA
Source: Dave Bunk Minerals
Description: Aggregate of colorless to white rhombohedra
Measured chemistry: Ca(Mg_0.62_Fe^2+^_0.33_Mn_0.05_)_Î£=1_(CO_3_)_2_ ; CO_2_ estimated by difference
x	intensity
374.123	0.136625
383.765	0.122587
393.407	0.097858
403.05	0.0740293
412.692	0.0529474
422.334	0.0380589
431.976	0.0283148
441.619	0.0220713
451.261	0.0191135
460.904	0.0153826
470.546	0.016637
480.188	0.0134883
489.83	0.0134372
499.473	0.0128118
509.115	0.0112012
518.758	0.0105533
528.4	0.00970095
538.042	0.00970721
547.684	0.0100144
557.327	0.00962325
566.969	0.00921703
576.611	0.00926402
586.254	0.00911964
595.896	0.00888566
605.538	0.00924132
615.181	0.00952672
624.823	0.0100234
634.466	0.0107457
644.108	0.010866
653.75	0.0110131
663.393	0.0114699
673.035	0.0124246
682.677	0.0131493
692.319	0.014508
701.962	0.0169715
711.604	0.0234318
721.246	0.0539521
730.889	0.0449414
740.531	0.0124685
750.173	0.0116409
759.816	0.0118919
769.458	0.0129965
779.101	0.0134096
788.743	0.0144901
798.385	0.0157604
808.028	0.0170205
817.67	0.0186706
827.312	0.0212674
836.955	0.0265275
846.597	0.0409051
856.239	0.0598555
865.881	0.135958
875.524	0.168716
885.166	0.0933568
894.808	0.0221682
904.451	0.0195225
914.093	0.0197205
923.736	0.0205171
933.378	0.0216755
943.02	0.0229917
952.663	0.0242673
962.305	0.0256946
971.947	0.0274499
981.59	0.0285143
991.232	0.0298836
1000.87	0.0311349
1010.52	0.0320578
1020.16	0.0338126
1029.8	0.0357215
1039.44	0.0376081
1049.09	0.0398867
1058.73	0.041682
1068.37	0.0432042
1078.01	0.0456926
1087.65	0.0484682
1097.3	0.0503117
1106.94	0.0505604
1116.58	0.0529152
1126.22	0.0557673
1135.87	0.0583711
1145.51	0.0614736
1155.15	0.0640645
1164.79	0.0668018
1174.44	0.0694785
1184.08	0.0726574
1193.72	0.075995
1203.36	0.0798345
1213.01	0.0844662
1222.65	0.0893679
1232.29	0.0945438
1241.93	0.100035
1251.58	0.106732
1261.22	0.11372
1270.86	0.121282
1280.5	0.129987
1290.14	0.139685
1299.79	0.149827
1309.43	0.161448
1319.07	0.174495
1328.71	0.188485
1338.36	0.204408
1348	0.22228
1357.64	0.241875
1367.28	0.263878
1376.92	0.28731
1386.57	0.311654
1396.21	0.333061
1405.85	0.344527
1415.49	0.344709
1425.14	0.327709
1434.78	0.302347
1444.42	0.280717
1454.06	0.260285
1463.71	0.235979
1473.35	0.211903
1482.99	0.189727
1492.63	0.168139
1502.28	0.144863
1511.92	0.122934
1521.56	0.103866
1531.2	0.0861078
1540.85	0.0707435
1550.49	0.0536134
1560.13	0.0347569
1569.77	0.0163918
1579.41	0.0113683
1589.06	0.00990127
1598.7	0.00884516
1608.34	0.0072971
1617.98	0.00585704
1627.63	0.00490132
1637.27	0.00431842
1646.91	0.00368479
1656.55	0.00299798
1666.19	0.00248923
1675.84	0.00207306
1685.48	0.002203
1695.12	0.00209714
1704.77	0.0014067
1714.41	0.00123643
1724.05	0.00123714
1733.69	0.00207832
1743.33	0.000510225
1752.98	0.000432552
1762.62	0.000780132
1772.26	0.00204554
1781.9	0.00229688
1791.55	0.00357873
1801.19	0.00600646
1810.83	0.00829093
1820.47	0.00657453
1830.12	0.0027968
1839.76	0.00088805
1849.4	0.00126148
1859.04	0.000977652
1868.68	0.00151919
1878.33	0.00067374
1887.97	0.00135847
1897.61	0.00122308
1907.25	0.000872994
1916.9	0.00134963
1926.54	0.000989118
1936.18	0.000616805
1945.82	0.00144511
1955.46	-0.000935865
1965.11	0.0010496
1974.75	-0.000339849
1984.39	0.00133749
1994.04	3.52163e-05
2003.68	0.000306842
2013.32	-0.000526246
2022.96	-0.000174861
2032.6	0.0010959
2042.25	0.00258441
2051.89	0.00260029
2061.53	0.00208996
2071.17	0.00361439
2080.82	0.00374226
2090.46	0.00290415
2100.1	0.00282262
2109.74	0.00328769
2119.39	0.0030286
2129.03	0.00118214
2138.67	0.00117416
2148.31	0.00220669
2157.95	0.000628783
2167.6	0.00201847
2177.24	0.00230279
2186.88	0.00318518
2196.52	0.00267316
2206.17	0.00262837
2215.81	0.00133796
2225.45	0.00254569
2235.09	0.00429945
2244.74	0.00259505
2254.38	0.00297295
2264.02	0.00402737
2273.66	0.00365609
2283.3	0.0051301
2292.95	0.00565761
2302.59	0.00583848
2312.23	0.00593452
2321.87	0.00746933
2331.52	0.00712358
2341.16	0.0070322
2350.8	0.00625081
2360.44	0.00708044
2370.09	0.00670213
2379.73	0.00492644
2389.37	0.00490997
2399.01	0.00585544
2408.66	0.00479365
2418.3	0.00559209
2427.94	0.00560945
2437.58	0.00536007
2447.22	0.00650092
2456.87	0.00586322
2466.51	0.00671308
2476.15	0.00731286
2485.79	0.00741879
2495.44	0.00909358
2505.08	0.0118752
2514.72	0.0128671
2524.36	0.0126255
2534.01	0.0121408
2543.65	0.00985468
2553.29	0.00882394
2562.93	0.00848275
2572.57	0.00766053
2582.22	0.00809671
2591.86	0.0061321
2601.5	0.00733848
2611.14	0.00743265
2620.79	0.00814654
2630.43	0.00744017
2640.07	0.00746515
2649.71	0.00717327
2659.36	0.00643559
2669	0.00616745
2678.64	0.00571077
2688.28	0.0053506
2697.93	0.00581064
2707.57	0.00581427
2717.21	0.00541804
2726.85	0.00492345
2736.49	0.00578181
2746.14	0.00500039
2755.78	0.0055609
2765.42	0.00561838
2775.06	0.00559871
2784.71	0.00542082
2794.35	0.00601021
2803.99	0.00522377
2813.63	0.00547442
2823.28	0.00564898
2832.92	0.00646895
2842.56	0.00710722
2852.2	0.00765279
2861.84	0.00782522
2871.49	0.00917414
2881.13	0.00929872
2890.77	0.00953896
2900.41	0.00891122
2910.06	0.00917858
2919.7	0.00782221
2929.34	0.00816099
2938.98	0.00784281
2948.62	0.00780927
2958.27	0.00849148
2967.91	0.00894618
2977.55	0.00835796
2987.2	0.0086332
2996.84	0.00875483
3006.48	0.00915081
3016.12	0.00761777
3025.76	0.00743703
3035.41	0.00838876
3045.05	0.00768342
3054.69	0.00785741
3064.33	0.00857325
3073.98	0.00920138
3083.62	0.00921821
3093.26	0.00883316
3102.9	0.00977751
3112.55	0.00940988
3122.19	0.0100485
3131.83	0.0115592
3141.47	0.00999132
3151.11	0.0111087
3160.76	0.0112602
3170.4	0.0115911
3180.04	0.0120023
3189.68	0.0115794
3199.33	0.0120973
3208.97	0.0120074
3218.61	0.0121226
3228.25	0.0114022
3237.9	0.0129516
3247.54	0.0122527
3257.18	0.0124384
3266.82	0.0116499
3276.47	0.0124261
3286.11	0.0126125
3295.75	0.0128195
3305.39	0.0129599
3315.03	0.0119864
3324.68	0.0129985
3334.32	0.0123765
3343.96	0.0126302
3353.6	0.0120873
3363.25	0.0129299
3372.89	0.0130318
3382.53	0.0131156
3392.17	0.0133516
3401.82	0.0132292
3411.46	0.0136307
3421.1	0.0125047
3430.74	0.0129091
3440.39	0.0125707
3450.03	0.0131202
3459.67	0.0146247
3469.31	0.0137868
3478.95	0.0127818
3488.6	0.0140436
3498.24	0.0123881
3507.88	0.0125858
3517.52	0.0133034
3527.17	0.0137033
3536.81	0.0107961
3546.45	0.0120646
3556.09	0.01061
3565.74	0.0108154
3575.38	0.0114975
3585.02	0.0093267
3594.66	0.0118617
3604.3	0.0104738
3613.95	0.00990775
3623.59	0.0112792
3633.23	0.0114492
3642.87	0.0113319
3652.52	0.0107556
3662.16	0.011645
3671.8	0.0119968
3681.44	0.011072
3691.09	0.0124642
3700.73	0.0122036
3710.37	0.0122182
3720.01	0.0123593
3729.66	0.0119742
3739.3	0.0115266
3748.94	0.0119793
3758.58	0.0118618
3768.22	0.0129695
3777.87	0.01115
3787.51	0.0120881
3797.15	0.0116968
3806.79	0.0127465
3816.44	0.0110025
3826.08	0.010605
3835.72	0.0123842
3845.36	0.0104647
3855.01	0.0122297
3864.65	0.0116818
3874.29	0.0122191
3883.93	0.0121519
3893.57	0.0133162
3903.22	0.0120124
3912.86	0.0117362
3922.5	0.0126106
3932.14	0.0114678
3941.79	0.0116417
3951.43	0.0106119
3961.07	0.0121532
3970.71	0.0129464
3980.36	0.01213
3990	0.011047
3999.64	0.0112101
