Measurement: Infrared, Infrared Data Processed
Mineral: Dravite
Rruff sample: R050077
Ideal chemistry: NaMg_3_Al_6_(Si_6_O_18_)(BO_3_)_3_(OH)_3_OH
Locality: Yinnietharra Station, Western Australia, Australia
Source: Rock Currier
Description: Dark brown euhedral prismatic single crystal
Measured chemistry: (Na_0.783_Ca_0.217_)(Mg_0.771_Fe^2+^_0.221_Ti^4+^_0.008_)_3_(Al_0.956_Mg_0.044_)_6_(BO_3_)_3_[Si_6_O_18_]((OH)_0.914_F_0.086_)_4_
x	intensity
399.193	0
408.835	0.157163
418.477	0.165776
428.12	0.158165
437.762	0.158895
447.404	0.170806
457.047	0.172673
466.689	0.177072
476.331	0.187341
485.974	0.192866
495.616	0.188753
505.258	0.180638
514.901	0.161352
524.543	0.142126
534.185	0.123395
543.828	0.10947
553.47	0.106592
563.112	0.106984
572.755	0.106461
582.397	0.0990655
592.039	0.0892825
601.682	0.0870715
611.324	0.0823672
620.966	0.0680131
630.609	0.0554323
640.251	0.0490125
649.893	0.0556083
659.536	0.0534366
669.178	0.0531947
678.82	0.0580727
688.463	0.0624122
698.105	0.0741365
707.747	0.0856846
717.39	0.0788058
727.032	0.0593621
736.674	0.0511889
746.317	0.0469644
755.959	0.055075
765.601	0.057202
775.244	0.0625096
784.886	0.0566908
794.528	0.0397958
804.171	0.0236832
813.813	0.023135
823.455	0.0232967
833.098	0.0217245
842.74	0.0223004
852.382	0.023745
862.025	0.0260717
871.667	0.029824
881.309	0.0358647
890.952	0.0443966
900.594	0.0558819
910.236	0.0674784
919.879	0.0803854
929.521	0.0989339
939.163	0.122668
948.806	0.145995
958.448	0.165069
968.09	0.174288
977.733	0.177321
987.375	0.172242
997.017	0.155369
1006.66	0.136063
1016.3	0.131354
1025.94	0.137884
1035.59	0.138737
1045.23	0.131841
1054.87	0.113761
1064.51	0.101195
1074.16	0.0958105
1083.8	0.0924569
1093.44	0.0863862
1103.08	0.0679488
1112.72	0.0473666
1122.37	0.0292109
1132.01	0.0168529
1141.65	0.0110397
1151.3	0.00862321
1160.94	0.00771476
1170.58	0.00762988
1180.22	0.00848219
1189.86	0.00993555
1199.51	0.0137162
1209.15	0.0222508
1218.79	0.0380749
1228.43	0.0588791
1238.08	0.0773102
1247.72	0.0854792
1257.36	0.0866613
1267	0.083244
1276.64	0.0776701
1286.29	0.0719215
1295.93	0.0672837
1305.57	0.0611157
1315.21	0.0562282
1324.86	0.052351
1334.5	0.0524554
1344.14	0.0573829
1353.78	0.0560212
1363.43	0.0484904
1373.07	0.0396165
1382.71	0.0307355
1392.35	0.0237234
1401.99	0.0190456
1411.64	0.015732
1421.28	0.0138014
1430.92	0.0109319
1440.57	0.00826994
1450.21	0.00657274
1459.85	0.00567895
1469.49	0.00534145
1479.13	0.00458587
1488.78	0.00420959
1498.42	0.00357666
1508.06	0.00300812
1517.7	0.00251593
1527.35	0.00236962
1536.99	0.00215266
1546.63	0.00222974
1556.27	0.00209978
1565.91	0.00256183
1575.56	0.00221239
1585.2	0.00239361
1594.84	0.00276889
1604.48	0.00266698
1614.13	0.00278434
1623.77	0.00296753
1633.41	0.00287707
1643.05	0.00293015
1652.7	0.00282634
1662.34	0.00296288
1671.98	0.00318722
1681.62	0.0029072
1691.27	0.00303655
1700.91	0.00276041
1710.55	0.00268002
1720.19	0.00244314
1729.84	0.00211564
1739.48	0.00196271
1749.12	0.00188591
1758.76	0.00212139
1768.4	0.00220005
1778.05	0.00204487
1787.69	0.00229385
1797.33	0.00230042
1806.97	0.00265311
1816.62	0.00174294
1826.26	0.00254219
1835.9	0.0021828
1845.54	0.00168786
1855.18	0.00184151
1864.83	0.00179874
1874.47	0.00180934
1884.11	0.00099575
1893.75	0.00143734
1903.4	0.0018846
1913.04	0.00162279
1922.68	0.000166774
1932.32	-0.000202249
1941.97	-0.000528005
1951.61	-0.000586071
1961.25	-0.00187911
1970.89	-0.00203931
1980.54	0.00191815
1990.18	-0.000777848
1999.82	-0.000698862
2009.46	-0.00219883
2019.11	-4.86139e-05
2028.75	-0.00053846
2038.39	0.00143706
2048.03	0.0021917
2057.67	0.000869201
2067.32	-0.000433029
2076.96	0.00174386
2086.6	0.00107185
2096.24	0.000878098
2105.89	0.00139244
2115.53	0.00212171
2125.17	-0.000761242
2134.81	-0.00164849
2144.45	-0.000162266
2154.1	-0.00312141
2163.74	0.00099751
2173.38	0.00106644
2183.02	0.00225486
2192.67	0.00289962
2202.31	0.00427677
2211.95	0.000962021
2221.59	0.00448968
2231.24	0.00365168
2240.88	0.00501147
2250.52	0.00457458
2260.16	0.00498516
2269.8	0.00548922
2279.45	0.00626933
2289.09	0.00643346
2298.73	0.00649122
2308.38	0.00615443
2318.02	0.00628525
2327.66	0.00572134
2337.3	0.00551392
2346.94	0.00581604
2356.59	0.00566806
2366.23	0.00420333
2375.87	0.00514128
2385.51	0.00423763
2395.16	0.00393289
2404.8	0.00497822
2414.44	0.00416828
2424.08	0.00498811
2433.72	0.00453873
2443.37	0.00533745
2453.01	0.00479905
2462.65	0.0044013
2472.29	0.00369561
2481.94	0.00365074
2491.58	0.00226226
2501.22	0.00407357
2510.86	0.00342661
2520.51	0.00322879
2530.15	0.00332552
2539.79	0.00317496
2549.43	0.00352139
2559.07	0.00403089
2568.72	0.00423652
2578.36	0.00391957
2588	0.00450715
2597.64	0.00469795
2607.29	0.00499703
2616.93	0.00451333
2626.57	0.00519292
2636.21	0.0050718
2645.86	0.005202
2655.5	0.00510665
2665.14	0.00500465
2674.78	0.00470617
2684.43	0.00423433
2694.07	0.00370081
2703.71	0.00408082
2713.35	0.00343681
2722.99	0.00475425
2732.64	0.00453834
2742.28	0.003991
2751.92	0.0051036
2761.56	0.00491919
2771.21	0.00392361
2780.85	0.00535947
2790.49	0.00429406
2800.13	0.00512972
2809.78	0.00479032
2819.42	0.00483928
2829.06	0.00566786
2838.7	0.00508178
2848.34	0.00375089
2857.99	0.00425505
2867.63	0.00438279
2877.27	0.00531516
2886.91	0.00427449
2896.56	0.00436633
2906.2	0.00427506
2915.84	0.00449187
2925.48	0.00304266
2935.13	0.00402833
2944.77	0.00436874
2954.41	0.00356638
2964.05	0.00474176
2973.7	0.00656737
2983.34	0.00566357
2992.98	0.00714531
3002.62	0.00629108
3012.26	0.00666907
3021.91	0.00673838
3031.55	0.00656811
3041.19	0.00621002
3050.83	0.00609315
3060.48	0.0079335
3070.12	0.00662856
3079.76	0.00753608
3089.4	0.00619788
3099.05	0.00686433
3108.69	0.00553588
3118.33	0.00765278
3127.97	0.00725061
3137.61	0.0065027
3147.26	0.00862126
3156.9	0.00935431
3166.54	0.00726851
3176.18	0.00789752
3185.83	0.00773958
3195.47	0.0087269
3205.11	0.0065778
3214.75	0.00653743
3224.4	0.0076824
3234.04	0.00795898
3243.68	0.00715226
3253.32	0.00728104
3262.97	0.00796421
3272.61	0.00826869
3282.25	0.00752629
3291.89	0.0084151
3301.53	0.00784161
3311.18	0.007106
3320.82	0.00729169
3330.46	0.00717954
3340.1	0.00942507
3349.75	0.00812212
3359.39	0.00851186
3369.03	0.00892496
3378.67	0.00918881
3388.32	0.0091532
3397.96	0.00728491
3407.6	0.00876582
3417.24	0.0104244
3426.89	0.00800844
3436.53	0.00960814
3446.17	0.00911131
3455.81	0.0109267
3465.45	0.0111274
3475.1	0.0123558
3484.74	0.0120883
3494.38	0.0152318
3504.02	0.0148465
3513.67	0.0161948
3523.31	0.0157573
3532.95	0.0162286
3542.59	0.017705
3552.24	0.0197173
3561.88	0.018607
3571.52	0.0205022
3581.16	0.0160417
3590.8	0.0137199
3600.45	0.0088681
3610.09	0.00728601
3619.73	0.00576985
3629.37	0.00846227
3639.02	0.00761702
3648.66	0.00746687
3658.3	0.00558505
3667.94	0.00559611
3677.59	0.00737319
3687.23	0.00644289
3696.87	0.00447756
3706.51	0.00641983
3716.16	0.0067719
3725.8	0.00588477
3735.44	0.00364197
3745.08	0.00548462
3754.72	0.00761926
3764.37	0.0053773
3774.01	0.00586006
3783.65	0.00755468
3793.29	0.00630658
3802.94	0.00425458
3812.58	0.00948686
3822.22	0.00741568
3831.86	0.00549075
3841.51	0.00838425
3851.15	0.00794761
3860.79	0.00531399
3870.43	0.00589859
3880.07	0.00449351
3889.72	0.00555556
3899.36	0.00540875
3909	0.003946
3918.64	0.00458512
3928.29	0.00440994
3937.93	0.000786599
3947.57	0.00690757
3957.21	0.00468235
3966.86	0.00393365
3976.5	0.00744366
3986.14	0.00630489
3995.78	0.00207388
