Measurement: Infrared, Infrared Data Processed
Mineral: Edenite
Rruff sample: R060029
Ideal chemistry: NaCa_2_Mg_5_(Si_7_Al)O_22_(OH)_2_
Locality: Renfrew County, Ontario, Canada
Source: University of Arizona Mineral Museum
Description: Black prismatic
Measured chemistry: (Na_0.62_K_0.34_[box]_0.04_)(Ca_0.86_Na_0.14_)_2_(Mg_0.57_Fe^2+^_0.30_Fe^3+^_0.07_Al_0.05_Ti_0.01_Mn_0.01_)_5_(Si_6.61_Al_1.39_)O_22_((OH)_0.69_F_0.31_)_2_
x	intensity
374.123	0.165832
383.765	0.203056
393.407	0.212596
403.05	0.205634
412.692	0.200921
422.334	0.209675
431.976	0.21572
441.619	0.215837
451.261	0.22446
460.904	0.217812
470.546	0.196869
480.188	0.167047
489.83	0.157985
499.473	0.164379
509.115	0.160926
518.758	0.14558
528.4	0.127918
538.042	0.107458
547.684	0.082352
557.327	0.0602759
566.969	0.044484
576.611	0.0334729
586.254	0.0294675
595.896	0.032207
605.538	0.0396235
615.181	0.0460752
624.823	0.0495251
634.466	0.0527124
644.108	0.0556302
653.75	0.0605892
663.393	0.0647942
673.035	0.0634502
682.677	0.061601
692.319	0.0567752
701.962	0.0533651
711.604	0.04882
721.246	0.053863
730.889	0.0611152
740.531	0.058754
750.173	0.0560806
759.816	0.058462
769.458	0.0671004
779.101	0.0767456
788.743	0.0821867
798.385	0.0810865
808.028	0.0776479
817.67	0.0843406
827.312	0.102445
836.955	0.129569
846.597	0.162657
856.239	0.188713
865.881	0.206683
875.524	0.221348
885.166	0.24309
894.808	0.265978
904.451	0.290056
914.093	0.30204
923.736	0.305037
933.378	0.309265
943.02	0.302411
952.663	0.285959
962.305	0.268691
971.947	0.251803
981.59	0.22959
991.232	0.2008
1000.87	0.171581
1010.52	0.149038
1020.16	0.137516
1029.8	0.134416
1039.44	0.134283
1049.09	0.132775
1058.73	0.122371
1068.37	0.104479
1078.01	0.0868483
1087.65	0.0722143
1097.3	0.0618877
1106.94	0.0528479
1116.58	0.0412709
1126.22	0.0260657
1135.87	0.0143646
1145.51	0.00843788
1155.15	0.00585944
1164.79	0.00438248
1174.44	0.00333098
1184.08	0.00232346
1193.72	0.00176869
1203.36	0.00109316
1213.01	0.000589541
1222.65	0.000298044
1232.29	2.05383e-05
1241.93	1.10695e-05
1251.58	-3.1599e-05
1261.22	3.66504e-05
1270.86	0.000174147
1280.5	0.000687295
1290.14	0.000483685
1299.79	0.000409459
1309.43	0.000336997
1319.07	0.00023029
1328.71	0.000150852
1338.36	0.000227934
1348	0.000101174
1357.64	0.000259525
1367.28	0.000405016
1376.92	0.000823653
1386.57	0.00125462
1396.21	0.00158456
1405.85	0.00177912
1415.49	0.00213889
1425.14	0.00217104
1434.78	0.00226249
1444.42	0.00212319
1454.06	0.00207887
1463.71	0.0019828
1473.35	0.00206672
1482.99	0.00182953
1492.63	0.00182109
1502.28	0.00203774
1511.92	0.00216586
1521.56	0.0025182
1531.2	0.00219491
1540.85	0.00299604
1550.49	0.0025486
1560.13	0.0032274
1569.77	0.00255957
1579.41	0.0024767
1589.06	0.00256205
1598.7	0.00281238
1608.34	0.00290484
1617.98	0.00317527
1627.63	0.0029863
1637.27	0.00321616
1646.91	0.0032811
1656.55	0.00259954
1666.19	0.00233718
1675.84	0.00245082
1685.48	0.00248437
1695.12	0.00252033
1704.77	0.00206104
1714.41	0.00228748
1724.05	0.00186046
1733.69	0.00216848
1743.33	0.000844976
1752.98	0.000438887
1762.62	0.000619436
1772.26	0.00080221
1781.9	0.000339682
1791.55	0.000454958
1801.19	0.000136203
1810.83	-3.88791e-05
1820.47	-9.62039e-05
1830.12	-0.000139094
1839.76	-0.000696027
1849.4	-0.000136455
1859.04	-0.000854522
1868.68	-0.00103169
1878.33	-0.00110824
1887.97	-0.0012205
1897.61	-0.00183919
1907.25	-0.00104351
1916.9	-0.00134662
1926.54	-0.00193691
1936.18	-0.00258929
1945.82	-0.00337306
1955.46	-0.00403475
1965.11	-0.00355201
1974.75	-0.004298
1984.39	-0.00246929
1994.04	-0.00261613
2003.68	-0.00305957
2013.32	-0.00299638
2022.96	-0.00378647
2032.6	-0.0024638
2042.25	-0.0025485
2051.89	-0.00137113
2061.53	-0.00122356
2071.17	-0.00121366
2080.82	-0.0012231
2090.46	-0.00190474
2100.1	-0.00157876
2109.74	-0.00150946
2119.39	-0.00208525
2129.03	-0.00289894
2138.67	-0.00365209
2148.31	-0.00305916
2157.95	-0.00448378
2167.6	-0.000578558
2177.24	-0.00173635
2186.88	0.00111799
2196.52	0.00110208
2206.17	0.000784676
2215.81	0.000899138
2225.45	0.00229768
2235.09	0.00193735
2244.74	0.0031546
2254.38	0.00315653
2264.02	0.00345907
2273.66	0.00382307
2283.3	0.00394713
2292.95	0.0038783
2302.59	0.00414639
2312.23	0.00386361
2321.87	0.00507232
2331.52	0.00405987
2341.16	0.00407643
2350.8	0.00312011
2360.44	0.00449037
2370.09	0.00353696
2379.73	0.00306763
2389.37	0.00296644
2399.01	0.00323011
2408.66	0.00321451
2418.3	0.00303096
2427.94	0.00337211
2437.58	0.00359838
2447.22	0.00383785
2456.87	0.00377372
2466.51	0.00336501
2476.15	0.00350591
2485.79	0.00380295
2495.44	0.00337918
2505.08	0.00356852
2514.72	0.00370715
2524.36	0.00379111
2534.01	0.0039961
2543.65	0.00389941
2553.29	0.00419949
2562.93	0.00374414
2572.57	0.00433141
2582.22	0.00453198
2591.86	0.00464962
2601.5	0.00462797
2611.14	0.00498484
2620.79	0.00508053
2630.43	0.00463847
2640.07	0.005247
2649.71	0.00496589
2659.36	0.00499352
2669	0.00484599
2678.64	0.00466084
2688.28	0.00509614
2697.93	0.00514836
2707.57	0.00474189
2717.21	0.00502855
2726.85	0.00537055
2736.49	0.00512142
2746.14	0.00538769
2755.78	0.00533479
2765.42	0.0052479
2775.06	0.00575927
2784.71	0.00570725
2794.35	0.00534929
2803.99	0.00573407
2813.63	0.0058558
2823.28	0.00560369
2832.92	0.00641753
2842.56	0.00661823
2852.2	0.00683214
2861.84	0.00685257
2871.49	0.00659088
2881.13	0.00655303
2890.77	0.00703559
2900.41	0.00779404
2910.06	0.00753019
2919.7	0.00860682
2929.34	0.00904203
2938.98	0.0075683
2948.62	0.0079291
2958.27	0.00744424
2967.91	0.00728148
2977.55	0.00664025
2987.2	0.00684114
2996.84	0.00678147
3006.48	0.00739203
3016.12	0.0066226
3025.76	0.007579
3035.41	0.00675512
3045.05	0.00744262
3054.69	0.00772505
3064.33	0.00765181
3073.98	0.00794492
3083.62	0.00763482
3093.26	0.00719646
3102.9	0.00832659
3112.55	0.00891481
3122.19	0.00891618
3131.83	0.00914314
3141.47	0.00945939
3151.11	0.00877285
3160.76	0.00943194
3170.4	0.00986609
3180.04	0.00980674
3189.68	0.00977772
3199.33	0.010033
3208.97	0.0102658
3218.61	0.0106569
3228.25	0.0104911
3237.9	0.00989396
3247.54	0.00993556
3257.18	0.00991028
3266.82	0.0105933
3276.47	0.0103909
3286.11	0.00998569
3295.75	0.0107109
3305.39	0.0100771
3315.03	0.0101842
3324.68	0.0106801
3334.32	0.0106935
3343.96	0.0107785
3353.6	0.0109628
3363.25	0.0110491
3372.89	0.0114388
3382.53	0.0108012
3392.17	0.0114363
3401.82	0.0108766
3411.46	0.011184
3421.1	0.0106666
3430.74	0.0110607
3440.39	0.0108734
3450.03	0.0105274
3459.67	0.0102617
3469.31	0.0103224
3478.95	0.0105876
3488.6	0.0104755
3498.24	0.0103117
3507.88	0.0103406
3517.52	0.00995612
3527.17	0.00950189
3536.81	0.0101901
3546.45	0.00882803
3556.09	0.0094826
3565.74	0.00932241
3575.38	0.00879995
3585.02	0.00922142
3594.66	0.00930553
3604.3	0.00721663
3613.95	0.00822992
3623.59	0.00815858
3633.23	0.00790623
3642.87	0.00748728
3652.52	0.00825862
3662.16	0.00819285
3671.8	0.00895224
3681.44	0.00710788
3691.09	0.00749237
3700.73	0.00611109
3710.37	0.00661813
3720.01	0.00645996
3729.66	0.0064705
3739.3	0.00578331
3748.94	0.00743472
3758.58	0.00664173
3768.22	0.00693158
3777.87	0.00600779
3787.51	0.00542066
3797.15	0.00598467
3806.79	0.00602556
3816.44	0.00701963
3826.08	0.00549354
3835.72	0.00649961
3845.36	0.00658221
3855.01	0.00729582
3864.65	0.00625247
3874.29	0.00599171
3883.93	0.00624582
3893.57	0.00551331
3903.22	0.00499377
3912.86	0.00550628
3922.5	0.0055115
3932.14	0.00573603
3941.79	0.00494016
3951.43	0.00551629
3961.07	0.005072
3970.71	0.00534828
3980.36	0.00425682
3990	0.0057033
3999.64	0.00606894
