Measurement: Infrared, Infrared Data Processed
Mineral: Edenite
Rruff sample: R050415
Ideal chemistry: NaCa_2_Mg_5_(Si_7_Al)O_22_(OH)_2_
Locality: Mogok, Burma
Source: Marcus Origlieri
Description: Transparent pale green water worn fragment
Measured chemistry: (Na_0.83_K_0.17_)(Ca_1.76_Na_0.24_)_=2_(Mg_4.54_Al_0.40_Fe^3+^_0.06_)_=5_(Si_6.74_Al_1.26_)O_22_((OH)_0.52_F_0.48_)_2_
x	intensity
399.193	0.244558
408.835	0.236245
418.477	0.24004
428.12	0.253063
437.762	0.262104
447.404	0.258421
457.047	0.251107
466.689	0.232262
476.331	0.208706
485.974	0.18512
495.616	0.176732
505.258	0.180878
514.901	0.159294
524.543	0.141642
534.185	0.126181
543.828	0.106278
553.47	0.0769469
563.112	0.0559181
572.755	0.0396618
582.397	0.0312522
592.039	0.0276123
601.682	0.0297336
611.324	0.0328007
620.966	0.0363502
630.609	0.0417232
640.251	0.050562
649.893	0.0598413
659.536	0.0710535
669.178	0.068608
678.82	0.0626437
688.463	0.0588675
698.105	0.0547248
707.747	0.0489404
717.39	0.0436432
727.032	0.0516448
736.674	0.0653468
746.317	0.0523728
755.959	0.0430454
765.601	0.0413538
775.244	0.046357
784.886	0.0588338
794.528	0.0767479
804.171	0.0896257
813.813	0.0894436
823.455	0.08871
833.098	0.0990461
842.74	0.126547
852.382	0.153993
862.025	0.177966
871.667	0.211374
881.309	0.265237
890.952	0.304457
900.594	0.317531
910.236	0.330978
919.879	0.325387
929.521	0.320284
939.163	0.321213
948.806	0.307308
958.448	0.291708
968.09	0.282367
977.733	0.262747
987.375	0.228548
997.017	0.191652
1006.66	0.162962
1016.3	0.145392
1025.94	0.139212
1035.59	0.143454
1045.23	0.154722
1054.87	0.157298
1064.51	0.13342
1074.16	0.104441
1083.8	0.0789863
1093.44	0.0616978
1103.08	0.054928
1112.72	0.0557281
1122.37	0.0468391
1132.01	0.0309993
1141.65	0.0177645
1151.3	0.00949349
1160.94	0.00645022
1170.58	0.00500444
1180.22	0.00370429
1189.86	0.00383817
1199.51	0.00296865
1209.15	0.00277679
1218.79	0.00276914
1228.43	0.00260147
1238.08	0.00237614
1247.72	0.00218199
1257.36	0.00208112
1267	0.00248601
1276.64	0.0032855
1286.29	0.00302773
1295.93	0.00290538
1305.57	0.00342727
1315.21	0.00379207
1324.86	0.004317
1334.5	0.00549177
1344.14	0.00612128
1353.78	0.00743937
1363.43	0.00897783
1373.07	0.00976686
1382.71	0.0115394
1392.35	0.013512
1401.99	0.0147633
1411.64	0.014997
1421.28	0.0144819
1430.92	0.0146364
1440.57	0.0145609
1450.21	0.0142946
1459.85	0.012907
1469.49	0.0126701
1479.13	0.0126618
1488.78	0.012122
1498.42	0.01172
1508.06	0.010894
1517.7	0.0104759
1527.35	0.00969985
1536.99	0.00908369
1546.63	0.00806392
1556.27	0.0078749
1565.91	0.00727456
1575.56	0.00656363
1585.2	0.00609771
1594.84	0.00586535
1604.48	0.00640278
1614.13	0.00589394
1623.77	0.00591618
1633.41	0.00554821
1643.05	0.00599347
1652.7	0.00579183
1662.34	0.00579925
1671.98	0.0054577
1681.62	0.00478137
1691.27	0.0047622
1700.91	0.00365669
1710.55	0.00325462
1720.19	0.00303085
1729.84	0.00310545
1739.48	0.000726677
1749.12	0.00137531
1758.76	0.0027208
1768.4	0.00292985
1778.05	0.00268767
1787.69	0.00325
1797.33	0.0031493
1806.97	0.00286094
1816.62	0.00184987
1826.26	0.00327278
1835.9	0.00260312
1845.54	0.00148231
1855.18	0.000916667
1864.83	0.00199621
1874.47	0.0024499
1884.11	0.00094546
1893.75	0.000470178
1903.4	0.00119586
1913.04	0.00176847
1922.68	-0.000490903
1932.32	-0.000904004
1941.97	-0.000841601
1951.61	-0.00241895
1961.25	-0.00208701
1970.89	-0.00368842
1980.54	-0.000308767
1990.18	-0.00107406
1999.82	-0.00350758
2009.46	0.00153246
2019.11	-0.00107017
2028.75	-0.00291845
2038.39	0.00177741
2048.03	0.00111794
2057.67	-0.000345601
2067.32	-0.000457111
2076.96	0.00292379
2086.6	0.000675587
2096.24	0.00194381
2105.89	0.0030266
2115.53	0.00171327
2125.17	0.000699984
2134.81	-0.00173923
2144.45	0.00329593
2154.1	-0.00362881
2163.74	0.00342047
2173.38	0.00285798
2183.02	0.00482562
2192.67	0.000901165
2202.31	0.00473133
2211.95	0.00410086
2221.59	0.00576121
2231.24	0.00426693
2240.88	0.000991883
2250.52	0.00538046
2260.16	0.00614468
2269.8	0.00603014
2279.45	0.00609338
2289.09	0.00952183
2298.73	0.00657365
2308.38	0.00799789
2318.02	0.00877659
2327.66	0.0075501
2337.3	0.0074315
2346.94	0.00597848
2356.59	0.0081913
2366.23	0.00685948
2375.87	0.00790534
2385.51	0.00663947
2395.16	0.00771915
2404.8	0.00579617
2414.44	0.00625294
2424.08	0.00700835
2433.72	0.00729952
2443.37	0.00774207
2453.01	0.00812834
2462.65	0.00705481
2472.29	0.0089411
2481.94	0.00791614
2491.58	0.008943
2501.22	0.00801647
2510.86	0.00742668
2520.51	0.00899984
2530.15	0.0082069
2539.79	0.00752275
2549.43	0.00760685
2559.07	0.00780365
2568.72	0.0100374
2578.36	0.00973698
2588	0.00962202
2597.64	0.00812827
2607.29	0.00915685
2616.93	0.00910724
2626.57	0.00950186
2636.21	0.00933823
2645.86	0.00927119
2655.5	0.00984573
2665.14	0.0093904
2674.78	0.00759372
2684.43	0.00794649
2694.07	0.00959941
2703.71	0.0090128
2713.35	0.00972705
2722.99	0.00912228
2732.64	0.00898873
2742.28	0.00929386
2751.92	0.0098359
2761.56	0.00892436
2771.21	0.00881832
2780.85	0.009393
2790.49	0.00914982
2800.13	0.0105151
2809.78	0.0097557
2819.42	0.00994865
2829.06	0.00971748
2838.7	0.00827175
2848.34	0.00786278
2857.99	0.00963233
2867.63	0.0102061
2877.27	0.00870322
2886.91	0.00942417
2896.56	0.0111774
2906.2	0.00799567
2915.84	0.00968025
2925.48	0.00918995
2935.13	0.00927534
2944.77	0.0100719
2954.41	0.0109968
2964.05	0.00923552
2973.7	0.00987107
2983.34	0.0102132
2992.98	0.0112502
3002.62	0.0138032
3012.26	0.0133486
3021.91	0.0109134
3031.55	0.0135707
3041.19	0.0107013
3050.83	0.0122725
3060.48	0.0131792
3070.12	0.0128382
3079.76	0.0132333
3089.4	0.0141079
3099.05	0.0132478
3108.69	0.012737
3118.33	0.0141694
3127.97	0.0162433
3137.61	0.0145065
3147.26	0.012803
3156.9	0.0162347
3166.54	0.0136748
3176.18	0.0155331
3185.83	0.0131196
3195.47	0.013887
3205.11	0.0141186
3214.75	0.0120024
3224.4	0.0156006
3234.04	0.0151916
3243.68	0.0157607
3253.32	0.0153304
3262.97	0.0137432
3272.61	0.0149415
3282.25	0.0160341
3291.89	0.0168379
3301.53	0.0135391
3311.18	0.016581
3320.82	0.0163764
3330.46	0.0156129
3340.1	0.0122625
3349.75	0.0149743
3359.39	0.0142045
3369.03	0.01541
3378.67	0.016959
3388.32	0.0164096
3397.96	0.0182461
3407.6	0.0145588
3417.24	0.01533
3426.89	0.0156695
3436.53	0.0129423
3446.17	0.0130586
3455.81	0.0158505
3465.45	0.0170268
3475.1	0.0138813
3484.74	0.0126059
3494.38	0.0148643
3504.02	0.0135117
3513.67	0.0131941
3523.31	0.0136896
3532.95	0.0119914
3542.59	0.0161519
3552.24	0.0117443
3561.88	0.0143411
3571.52	0.0149372
3581.16	0.0108321
3590.8	0.0124788
3600.45	0.0129377
3610.09	0.0129819
3619.73	0.0155481
3629.37	0.00886114
3639.02	0.0125562
3648.66	0.0105275
3658.3	0.00795152
3667.94	0.0159238
3677.59	0.0178197
3687.23	0.0126267
3696.87	0.0159948
3706.51	0.0133888
3716.16	0.0090246
3725.8	0.0148501
3735.44	0.0175539
3745.08	0.0101488
3754.72	0.00701195
3764.37	0.0149741
3774.01	0.012022
3783.65	0.0115006
3793.29	0.0101691
3802.94	0.0105049
3812.58	0.00962288
3822.22	0.0129866
3831.86	0.0116247
3841.51	0.0144907
3851.15	0.0160759
3860.79	0.0137188
3870.43	0.0114455
3880.07	0.0111588
3889.72	0.0139859
3899.36	0.0164008
3909	0.0133013
3918.64	0.0139034
3928.29	0.0173459
3937.93	0.0161009
3947.57	0.0142285
3957.21	0.0100606
3966.86	0.0138175
3976.5	0.0165084
3986.14	0.0126695
3995.78	0.0161522
