Measurement: Infrared, Infrared Data Processed
Mineral: Edingtonite
Rruff sample: R040110
Ideal chemistry: Ba(Si_3_Al_2_)O_10_4H_2_O
Locality: 2350 level, Brunswick 12 mine, Bathhurst, New Brunswick, Canada
Source: National Museums of Canada
Description: Colorless rectangular prism
Measured chemistry: Ba_1.00_(Si_3.00_Al_2.00_)O_10_Â·4H_2_O
x	intensity
399.193	0
408.835	0.167309
418.477	0.137584
428.12	0.121797
437.762	0.088065
447.404	0.0676653
457.047	0.0706382
466.689	0.0762618
476.331	0.0778139
485.974	0.0794956
495.616	0.083818
505.258	0.0787974
514.901	0.0782171
524.543	0.0788543
534.185	0.0777669
543.828	0.0665146
553.47	0.0700354
563.112	0.0810276
572.755	0.0964178
582.397	0.108447
592.039	0.104412
601.682	0.102114
611.324	0.115353
620.966	0.119064
630.609	0.104503
640.251	0.0877266
649.893	0.0697724
659.536	0.0592346
669.178	0.0647846
678.82	0.0838066
688.463	0.101062
698.105	0.0983965
707.747	0.0804334
717.39	0.0547993
727.032	0.0434989
736.674	0.041713
746.317	0.0463546
755.959	0.0571352
765.601	0.0517285
775.244	0.031752
784.886	0.0249584
794.528	0.0225908
804.171	0.0215515
813.813	0.0226607
823.455	0.0240668
833.098	0.0266112
842.74	0.0300082
852.382	0.0345856
862.025	0.0405372
871.667	0.0489246
881.309	0.0596546
890.952	0.0744074
900.594	0.0943834
910.236	0.121298
919.879	0.156117
929.521	0.200319
939.163	0.251719
948.806	0.302376
958.448	0.327518
968.09	0.309327
977.733	0.289556
987.375	0.281573
997.017	0.25558
1006.66	0.240709
1016.3	0.20804
1025.94	0.16762
1035.59	0.137117
1045.23	0.119515
1054.87	0.114772
1064.51	0.109556
1074.16	0.0868105
1083.8	0.0768713
1093.44	0.0765982
1103.08	0.0562552
1112.72	0.0377131
1122.37	0.0273476
1132.01	0.0216308
1141.65	0.0180199
1151.3	0.0155369
1160.94	0.0140207
1170.58	0.0124842
1180.22	0.0111899
1189.86	0.0101368
1199.51	0.00909441
1209.15	0.00820681
1218.79	0.00740569
1228.43	0.00704496
1238.08	0.00654412
1247.72	0.00643803
1257.36	0.00606493
1267	0.00605982
1276.64	0.00603012
1286.29	0.00593788
1295.93	0.00600058
1305.57	0.005753
1315.21	0.00595329
1324.86	0.00565488
1334.5	0.00594677
1344.14	0.00611209
1353.78	0.00603732
1363.43	0.00628284
1373.07	0.00616993
1382.71	0.0064505
1392.35	0.0063977
1401.99	0.00707908
1411.64	0.00707456
1421.28	0.00705082
1430.92	0.0074351
1440.57	0.00759659
1450.21	0.00770883
1459.85	0.00765655
1469.49	0.00716416
1479.13	0.00701226
1488.78	0.00653341
1498.42	0.0064194
1508.06	0.00632281
1517.7	0.00663299
1527.35	0.00680316
1536.99	0.00726273
1546.63	0.00848592
1556.27	0.00852162
1565.91	0.0101479
1575.56	0.0101844
1585.2	0.0119988
1594.84	0.0136232
1604.48	0.0175116
1614.13	0.0243571
1623.77	0.0317336
1633.41	0.0352884
1643.05	0.0307537
1652.7	0.0244427
1662.34	0.0216995
1671.98	0.0156141
1681.62	0.010583
1691.27	0.00880364
1700.91	0.00744785
1710.55	0.00714355
1720.19	0.00660784
1729.84	0.00628177
1739.48	0.00622111
1749.12	0.00582523
1758.76	0.00556433
1768.4	0.00507978
1778.05	0.00467057
1787.69	0.00435294
1797.33	0.00445548
1806.97	0.00459412
1816.62	0.00368259
1826.26	0.00427939
1835.9	0.00350695
1845.54	0.00400259
1855.18	0.00358586
1864.83	0.00373682
1874.47	0.0027996
1884.11	0.00373243
1893.75	0.00198444
1903.4	0.00180651
1913.04	0.00212594
1922.68	0.00156964
1932.32	0.0010783
1941.97	0.0023393
1951.61	-0.000534313
1961.25	0.0014449
1970.89	-0.00298076
1980.54	0.00174483
1990.18	0.000427995
1999.82	-0.000687323
2009.46	-0.00115979
2019.11	-0.00130203
2028.75	0.000144624
2038.39	0.000697253
2048.03	0.00180839
2057.67	0.00354294
2067.32	0.00348195
2076.96	0.00400735
2086.6	0.00397588
2096.24	0.00273762
2105.89	0.00485876
2115.53	0.00438241
2125.17	0.0035263
2134.81	0.00122107
2144.45	0.00109474
2154.1	-0.00063712
2163.74	0.00517078
2173.38	0.00462359
2183.02	0.00467665
2192.67	0.00313895
2202.31	0.00535405
2211.95	0.00551145
2221.59	0.00559104
2231.24	0.00672864
2240.88	0.00604946
2250.52	0.00736054
2260.16	0.00708127
2269.8	0.00609017
2279.45	0.00716382
2289.09	0.0073201
2298.73	0.00707941
2308.38	0.00698903
2318.02	0.00692443
2327.66	0.00697462
2337.3	0.00688395
2346.94	0.0073818
2356.59	0.0066456
2366.23	0.00673254
2375.87	0.00585686
2385.51	0.0062977
2395.16	0.00573584
2404.8	0.00617434
2414.44	0.00614793
2424.08	0.00698437
2433.72	0.00544263
2443.37	0.00603319
2453.01	0.00702561
2462.65	0.00684429
2472.29	0.00620878
2481.94	0.00678345
2491.58	0.00652032
2501.22	0.00599299
2510.86	0.00659198
2520.51	0.00538807
2530.15	0.0066455
2539.79	0.00653825
2549.43	0.00717177
2559.07	0.00799392
2568.72	0.00735591
2578.36	0.00813283
2588	0.00770502
2597.64	0.00748651
2607.29	0.00692657
2616.93	0.00648275
2626.57	0.00733067
2636.21	0.00749
2645.86	0.00793726
2655.5	0.00814925
2665.14	0.00653561
2674.78	0.00657549
2684.43	0.00634483
2694.07	0.00701116
2703.71	0.00652717
2713.35	0.00679756
2722.99	0.00728481
2732.64	0.00691583
2742.28	0.00793303
2751.92	0.00697052
2761.56	0.00798773
2771.21	0.00779149
2780.85	0.00799631
2790.49	0.0078353
2800.13	0.00749311
2809.78	0.0091345
2819.42	0.0079976
2829.06	0.00862312
2838.7	0.00846224
2848.34	0.00859552
2857.99	0.00910686
2867.63	0.00979352
2877.27	0.00965322
2886.91	0.00970168
2896.56	0.00916646
2906.2	0.0101505
2915.84	0.0105916
2925.48	0.0110322
2935.13	0.0108416
2944.77	0.0103741
2954.41	0.0107139
2964.05	0.0103535
2973.7	0.0107947
2983.34	0.010813
2992.98	0.0114134
3002.62	0.011599
3012.26	0.0120634
3021.91	0.0108432
3031.55	0.0109311
3041.19	0.0119234
3050.83	0.0119759
3060.48	0.013074
3070.12	0.0122991
3079.76	0.013311
3089.4	0.0145395
3099.05	0.0145294
3108.69	0.0140377
3118.33	0.0165425
3127.97	0.0151439
3137.61	0.014234
3147.26	0.0180328
3156.9	0.0178228
3166.54	0.0190753
3176.18	0.0204585
3185.83	0.0204074
3195.47	0.0218627
3205.11	0.0227362
3214.75	0.0230595
3224.4	0.0237007
3234.04	0.0246786
3243.68	0.0249141
3253.32	0.0258107
3262.97	0.024939
3272.61	0.0281511
3282.25	0.0293711
3291.89	0.0291465
3301.53	0.0316811
3311.18	0.0325071
3320.82	0.0330289
3330.46	0.0343919
3340.1	0.0359411
3349.75	0.0389647
3359.39	0.0411022
3369.03	0.0436727
3378.67	0.0441055
3388.32	0.0449029
3397.96	0.0487921
3407.6	0.0503024
3417.24	0.0540539
3426.89	0.0547159
3436.53	0.0577243
3446.17	0.0588639
3455.81	0.0596202
3465.45	0.060115
3475.1	0.0598393
3484.74	0.0603873
3494.38	0.0604998
3504.02	0.0599812
3513.67	0.0608923
3523.31	0.0630169
3532.95	0.0645816
3542.59	0.0647859
3552.24	0.0674453
3561.88	0.0697342
3571.52	0.0680671
3581.16	0.0672255
3590.8	0.0614295
3600.45	0.0520277
3610.09	0.0387522
3619.73	0.0313782
3629.37	0.0252731
3639.02	0.0184929
3648.66	0.0139725
3658.3	0.0121464
3667.94	0.0102475
3677.59	0.00912738
3687.23	0.00685606
3696.87	0.00713844
3706.51	0.00661454
3716.16	0.00904225
3725.8	0.00557439
3735.44	0.00482438
3745.08	0.00641679
3754.72	0.00561253
3764.37	0.00637579
3774.01	0.00570336
3783.65	0.00881647
3793.29	0.00821397
3802.94	0.00673104
3812.58	0.00816154
3822.22	0.00608515
3831.86	0.00798743
3841.51	0.00552153
3851.15	0.00538592
3860.79	0.00494127
3870.43	0.00724216
3880.07	0.00898489
3889.72	0.00771017
3899.36	0.00932033
3909	0.00690705
3918.64	0.00623731
3928.29	0.00694787
3937.93	0.00518835
3947.57	0.00735318
3957.21	0.00758018
3966.86	0.0102587
3976.5	0.00722467
3986.14	0.00641379
3995.78	0.00996194
