Measurement: Infrared, Infrared Data Processed
Mineral: Elpidite
Rruff sample: R060064
Ideal chemistry: Na_2_Zr^4+^Si_6_O_15_3H_2_O
Locality: Narsarsuk, Greenland
Source: University of Arizona Mineral Museum
Description: Tan colored elongated prismatic crystals
x	intensity
399.193	0.272523
408.835	0.338233
418.477	0.352114
428.12	0.388119
437.762	0.308592
447.404	0.256308
457.047	0.219378
466.689	0.17762
476.331	0.138051
485.974	0.116633
495.616	0.109855
505.258	0.0948681
514.901	0.10195
524.543	0.108535
534.185	0.109912
543.828	0.11758
553.47	0.0835625
563.112	0.0965584
572.755	0.122702
582.397	0.154391
592.039	0.1788
601.682	0.165771
611.324	0.166936
620.966	0.193104
630.609	0.161076
640.251	0.158412
649.893	0.134512
659.536	0.0931609
669.178	0.089579
678.82	0.0907817
688.463	0.0868822
698.105	0.0780129
707.747	0.0855128
717.39	0.0660137
727.032	0.0636082
736.674	0.0715045
746.317	0.06864
755.959	0.0748604
765.601	0.090299
775.244	0.130825
784.886	0.104195
794.528	0.0665189
804.171	0.0806709
813.813	0.0659576
823.455	0.0446371
833.098	0.0461866
842.74	0.0525276
852.382	0.0642578
862.025	0.0803565
871.667	0.0994288
881.309	0.125507
890.952	0.163931
900.594	0.216278
910.236	0.270573
919.879	0.321802
929.521	0.368859
939.163	0.406622
948.806	0.450531
958.448	0.509393
968.09	0.573453
977.733	0.640008
987.375	0.664616
997.017	0.703728
1006.66	0.694042
1016.3	0.523677
1025.94	0.391342
1035.59	0.315881
1045.23	0.255904
1054.87	0.206324
1064.51	0.162336
1074.16	0.131113
1083.8	0.151051
1093.44	0.195012
1103.08	0.248857
1112.72	0.247742
1122.37	0.206537
1132.01	0.174145
1141.65	0.147484
1151.3	0.112586
1160.94	0.117704
1170.58	0.140294
1180.22	0.0983168
1189.86	0.0646094
1199.51	0.0423386
1209.15	0.0287051
1218.79	0.021389
1228.43	0.0168472
1238.08	0.0141032
1247.72	0.0121339
1257.36	0.0109894
1267	0.00991228
1276.64	0.00968808
1286.29	0.00932043
1295.93	0.00827584
1305.57	0.00771009
1315.21	0.00752058
1324.86	0.00664893
1334.5	0.0065013
1344.14	0.00613447
1353.78	0.00619715
1363.43	0.00674722
1373.07	0.00708694
1382.71	0.00690387
1392.35	0.00822271
1401.99	0.00958115
1411.64	0.0103818
1421.28	0.00928956
1430.92	0.00825601
1440.57	0.00660265
1450.21	0.00559933
1459.85	0.00603453
1469.49	0.00551597
1479.13	0.00531621
1488.78	0.00511405
1498.42	0.00510058
1508.06	0.00554196
1517.7	0.00559505
1527.35	0.00546494
1536.99	0.00622688
1546.63	0.00661958
1556.27	0.00743917
1565.91	0.00736765
1575.56	0.00829004
1585.2	0.00888449
1594.84	0.0110626
1604.48	0.0132592
1614.13	0.0188225
1623.77	0.031916
1633.41	0.0598727
1643.05	0.052843
1652.7	0.0391821
1662.34	0.0181318
1671.98	0.0112382
1681.62	0.00864551
1691.27	0.00668987
1700.91	0.00673205
1710.55	0.00529333
1720.19	0.00492563
1729.84	0.00451183
1739.48	0.00313335
1749.12	0.00263522
1758.76	0.00193157
1768.4	0.00296055
1778.05	0.00230496
1787.69	0.00301056
1797.33	0.00263889
1806.97	0.00177753
1816.62	0.00106069
1826.26	0.00158662
1835.9	0.000114066
1845.54	0.000277487
1855.18	-0.000336845
1864.83	-0.000526027
1874.47	-0.000679807
1884.11	-0.00206601
1893.75	-0.00130569
1903.4	-0.00225347
1913.04	-0.00191574
1922.68	-0.0029842
1932.32	-0.00489703
1941.97	-0.00514988
1951.61	-0.00737964
1961.25	-0.00893251
1970.89	-0.0093361
1980.54	-0.00894871
1990.18	-0.0100742
1999.82	-0.00937468
2009.46	-0.0103654
2019.11	-0.0106934
2028.75	-0.0114257
2038.39	-0.00840525
2048.03	-0.0075089
2057.67	-0.00598776
2067.32	-0.00507187
2076.96	-0.00239416
2086.6	-0.00296743
2096.24	-0.00243482
2105.89	-0.00229354
2115.53	-0.00204956
2125.17	-0.00171239
2134.81	-0.00594752
2144.45	-0.00551777
2154.1	-0.00923728
2163.74	-0.00775461
2173.38	-0.00808809
2183.02	-0.00604597
2192.67	-0.00612198
2202.31	-0.00791716
2211.95	-0.0084857
2221.59	-0.00488411
2231.24	-0.00439034
2240.88	-0.00610704
2250.52	-0.00311781
2260.16	-0.00182229
2269.8	-0.00171325
2279.45	-0.000304781
2289.09	0.00148482
2298.73	0.00181044
2308.38	0.00176823
2318.02	0.0025514
2327.66	0.00283089
2337.3	0.00261494
2346.94	0.00159992
2356.59	0.003628
2366.23	0.00334382
2375.87	0.00146511
2385.51	0.0013707
2395.16	0.00138641
2404.8	0.00151407
2414.44	0.00187472
2424.08	0.0028681
2433.72	0.00155522
2443.37	0.00248908
2453.01	0.00260245
2462.65	0.00203952
2472.29	0.00136118
2481.94	0.00125097
2491.58	0.000700385
2501.22	0.00262245
2510.86	0.00159777
2520.51	0.00192754
2530.15	0.00154791
2539.79	0.00106893
2549.43	0.00191725
2559.07	0.00146313
2568.72	0.00343479
2578.36	0.00242872
2588	0.0036721
2597.64	0.00388467
2607.29	0.00421858
2616.93	0.00396607
2626.57	0.00339657
2636.21	0.00374726
2645.86	0.00409867
2655.5	0.00494245
2665.14	0.00471857
2674.78	0.00407322
2684.43	0.00445767
2694.07	0.00476485
2703.71	0.00496866
2713.35	0.00500633
2722.99	0.0050022
2732.64	0.00606139
2742.28	0.00569488
2751.92	0.00548304
2761.56	0.00565715
2771.21	0.00478024
2780.85	0.00581738
2790.49	0.00624595
2800.13	0.00603422
2809.78	0.0057721
2819.42	0.00607765
2829.06	0.00584053
2838.7	0.00688559
2848.34	0.00767891
2857.99	0.00815454
2867.63	0.00801125
2877.27	0.00876187
2886.91	0.00852915
2896.56	0.00922098
2906.2	0.00934567
2915.84	0.0114968
2925.48	0.011475
2935.13	0.0121525
2944.77	0.0110293
2954.41	0.0121824
2964.05	0.0119615
2973.7	0.0183153
2983.34	0.0122601
2992.98	0.0135206
3002.62	0.0130313
3012.26	0.0136799
3021.91	0.0134885
3031.55	0.0133471
3041.19	0.0129924
3050.83	0.0129717
3060.48	0.0146558
3070.12	0.0148227
3079.76	0.0138675
3089.4	0.0144915
3099.05	0.0150763
3108.69	0.0158356
3118.33	0.0155031
3127.97	0.0159436
3137.61	0.016349
3147.26	0.0162191
3156.9	0.017551
3166.54	0.0194471
3176.18	0.0201198
3185.83	0.0190622
3195.47	0.023272
3205.11	0.0210079
3214.75	0.023039
3224.4	0.0231171
3234.04	0.0255598
3243.68	0.025937
3253.32	0.0290226
3262.97	0.0245711
3272.61	0.0247296
3282.25	0.024862
3291.89	0.0243734
3301.53	0.0246664
3311.18	0.0268705
3320.82	0.0271183
3330.46	0.030376
3340.1	0.0292867
3349.75	0.0299701
3359.39	0.0312102
3369.03	0.0340104
3378.67	0.0324491
3388.32	0.0369577
3397.96	0.0397125
3407.6	0.0400086
3417.24	0.0428563
3426.89	0.0488587
3436.53	0.0643949
3446.17	0.09383
3455.81	0.100991
3465.45	0.0733697
3475.1	0.0611507
3484.74	0.0570889
3494.38	0.0678892
3504.02	0.0929293
3513.67	0.0824345
3523.31	0.0921565
3532.95	0.113529
3542.59	0.141099
3552.24	0.176878
3561.88	0.114261
3571.52	0.0632389
3581.16	0.0406864
3590.8	0.0309892
3600.45	0.0269577
3610.09	0.0193718
3619.73	0.0166244
3629.37	0.0147678
3639.02	0.0111903
3648.66	0.0123623
3658.3	0.00673559
3667.94	0.00649535
3677.59	0.00829436
3687.23	0.00513815
3696.87	0.00110305
3706.51	0.00347871
3716.16	0.000441978
3725.8	0.00210954
3735.44	0.00316889
3745.08	0.00398269
3754.72	0.00133085
3764.37	0.00186513
3774.01	0.0061706
3783.65	0.00204953
3793.29	0.00433978
3802.94	0.00788868
3812.58	0.00243622
3822.22	0.00593457
3831.86	0.00492859
3841.51	0.00507657
3851.15	0.0065296
3860.79	0.0110415
3870.43	0.00567303
3880.07	0.00466272
3889.72	0.00236742
3899.36	0.00807117
3909	0.00573203
3918.64	0.00713552
3928.29	0.0049889
3937.93	0.00454228
3947.57	0.00776964
3957.21	0.00677604
3966.86	0.0059936
3976.5	0.00430553
3986.14	0.00612864
3995.78	0.00452365
