Measurement: Infrared, Infrared Data Processed
Mineral: Enargite
Rruff sample: R050373
Ideal chemistry: Cu_3_AsS_4_
Locality: Butte, Silver Bow County, Montana, USA
Source: Eugene Schlepp
Description: Black tabular crystals associated with quartz
Measured chemistry: Cu_2.97_As_0.96_Sb_0.01_S_4_
x	intensity
399.193	0.148835
408.835	0.19649
418.477	0.270354
428.12	0.302941
437.762	0.32521
447.404	0.357347
457.047	0.38594
466.689	0.395619
476.331	0.409008
485.974	0.417157
495.616	0.42176
505.258	0.437906
514.901	0.440935
524.543	0.44544
534.185	0.457106
543.828	0.458311
553.47	0.466621
563.112	0.474187
572.755	0.481314
582.397	0.490609
592.039	0.496087
601.682	0.496999
611.324	0.504052
620.966	0.50438
630.609	0.505642
640.251	0.505832
649.893	0.505727
659.536	0.51144
669.178	0.516118
678.82	0.517885
688.463	0.521727
698.105	0.527945
707.747	0.532914
717.39	0.536181
727.032	0.537849
736.674	0.540298
746.317	0.543531
755.959	0.549483
765.601	0.553175
775.244	0.556282
784.886	0.55861
794.528	0.563412
804.171	0.568551
813.813	0.569234
823.455	0.573721
833.098	0.577885
842.74	0.583075
852.382	0.584631
862.025	0.586787
871.667	0.587797
881.309	0.588627
890.952	0.587579
900.594	0.591431
910.236	0.595939
919.879	0.598629
929.521	0.602053
939.163	0.606363
948.806	0.609643
958.448	0.614245
968.09	0.618744
977.733	0.62369
987.375	0.628059
997.017	0.631999
1006.66	0.636783
1016.3	0.643977
1025.94	0.6517
1035.59	0.661101
1045.23	0.669132
1054.87	0.676803
1064.51	0.680989
1074.16	0.676394
1083.8	0.670947
1093.44	0.666851
1103.08	0.668872
1112.72	0.671787
1122.37	0.670857
1132.01	0.663731
1141.65	0.652518
1151.3	0.636909
1160.94	0.620464
1170.58	0.615861
1180.22	0.616208
1189.86	0.617793
1199.51	0.616747
1209.15	0.611291
1218.79	0.60858
1228.43	0.610334
1238.08	0.614101
1247.72	0.618456
1257.36	0.623275
1267	0.626979
1276.64	0.631723
1286.29	0.635454
1295.93	0.638819
1305.57	0.643529
1315.21	0.646516
1324.86	0.649659
1334.5	0.653737
1344.14	0.655928
1353.78	0.659296
1363.43	0.66201
1373.07	0.664613
1382.71	0.668249
1392.35	0.670626
1401.99	0.672119
1411.64	0.676256
1421.28	0.679034
1430.92	0.681735
1440.57	0.68481
1450.21	0.688677
1459.85	0.690003
1469.49	0.690138
1479.13	0.692145
1488.78	0.69497
1498.42	0.69836
1508.06	0.701023
1517.7	0.703214
1527.35	0.706305
1536.99	0.708372
1546.63	0.711111
1556.27	0.71396
1565.91	0.716576
1575.56	0.719334
1585.2	0.722565
1594.84	0.724706
1604.48	0.727211
1614.13	0.72998
1623.77	0.731349
1633.41	0.732706
1643.05	0.733697
1652.7	0.735231
1662.34	0.733831
1671.98	0.735351
1681.62	0.736535
1691.27	0.738619
1700.91	0.740401
1710.55	0.741894
1720.19	0.744855
1729.84	0.748467
1739.48	0.749244
1749.12	0.747906
1758.76	0.748691
1768.4	0.752163
1778.05	0.752864
1787.69	0.754588
1797.33	0.758425
1806.97	0.761092
1816.62	0.761523
1826.26	0.762889
1835.9	0.766969
1845.54	0.770205
1855.18	0.769645
1864.83	0.771672
1874.47	0.774585
1884.11	0.776165
1893.75	0.777122
1903.4	0.778245
1913.04	0.778818
1922.68	0.778788
1932.32	0.776449
1941.97	0.779091
1951.61	0.778479
1961.25	0.765657
1970.89	0.768722
1980.54	0.776409
1990.18	0.780016
1999.82	0.780237
2009.46	0.775875
2019.11	0.779868
2028.75	0.779512
2038.39	0.783828
2048.03	0.798358
2057.67	0.79937
2067.32	0.806386
2076.96	0.80879
2086.6	0.816167
2096.24	0.816683
2105.89	0.817866
2115.53	0.822071
2125.17	0.819957
2134.81	0.814599
2144.45	0.811601
2154.1	0.799259
2163.74	0.80529
2173.38	0.815736
2183.02	0.81432
2192.67	0.822389
2202.31	0.82816
2211.95	0.829122
2221.59	0.838105
2231.24	0.840314
2240.88	0.843881
2250.52	0.847165
2260.16	0.854783
2269.8	0.858015
2279.45	0.860444
2289.09	0.865445
2298.73	0.870046
2308.38	0.872006
2318.02	0.874843
2327.66	0.877335
2337.3	0.880087
2346.94	0.880873
2356.59	0.882171
2366.23	0.884821
2375.87	0.8833
2385.51	0.887922
2395.16	0.889477
2404.8	0.887395
2414.44	0.88962
2424.08	0.892805
2433.72	0.89269
2443.37	0.898287
2453.01	0.89917
2462.65	0.900966
2472.29	0.902797
2481.94	0.9035
2491.58	0.908425
2501.22	0.909425
2510.86	0.910488
2520.51	0.916035
2530.15	0.916671
2539.79	0.918065
2549.43	0.920193
2559.07	0.923536
2568.72	0.926278
2578.36	0.927692
2588	0.927226
2597.64	0.931263
2607.29	0.932956
2616.93	0.937747
2626.57	0.937958
2636.21	0.944309
2645.86	0.943809
2655.5	0.945153
2665.14	0.949852
2674.78	0.951754
2684.43	0.953106
2694.07	0.956058
2703.71	0.959117
2713.35	0.961817
2722.99	0.963615
2732.64	0.965872
2742.28	0.968215
2751.92	0.969044
2761.56	0.973117
2771.21	0.97644
2780.85	0.978974
2790.49	0.976825
2800.13	0.982768
2809.78	0.983877
2819.42	0.987912
2829.06	0.989536
2838.7	0.996466
2848.34	1.00079
2857.99	1.00121
2867.63	1.00006
2877.27	1.00195
2886.91	1.0082
2896.56	1.00825
2906.2	1.01356
2915.84	1.02055
2925.48	1.01928
2935.13	1.0115
2944.77	1.01279
2954.41	1.01585
2964.05	1.01215
2973.7	1.01184
2983.34	1.01409
2992.98	1.01483
3002.62	1.01879
3012.26	1.02123
3021.91	1.02495
3031.55	1.02568
3041.19	1.0281
3050.83	1.03089
3060.48	1.0334
3070.12	1.03341
3079.76	1.0357
3089.4	1.04269
3099.05	1.03906
3108.69	1.04177
3118.33	1.04457
3127.97	1.04772
3137.61	1.04438
3147.26	1.04706
3156.9	1.04599
3166.54	1.04969
3176.18	1.04998
3185.83	1.04998
3195.47	1.05356
3205.11	1.0523
3214.75	1.05177
3224.4	1.0571
3234.04	1.05557
3243.68	1.05677
3253.32	1.06139
3262.97	1.0596
3272.61	1.06108
3282.25	1.0637
3291.89	1.06602
3301.53	1.06813
3311.18	1.06527
3320.82	1.06166
3330.46	1.06977
3340.1	1.07046
3349.75	1.07203
3359.39	1.07347
3369.03	1.0712
3378.67	1.07445
3388.32	1.07127
3397.96	1.06866
3407.6	1.07058
3417.24	1.06827
3426.89	1.06982
3436.53	1.07351
3446.17	1.07386
3455.81	1.07188
3465.45	1.07082
3475.1	1.07092
3484.74	1.07194
3494.38	1.06871
3504.02	1.07191
3513.67	1.07102
3523.31	1.06952
3532.95	1.06854
3542.59	1.06915
3552.24	1.07456
3561.88	1.07291
3571.52	1.07637
3581.16	1.07309
3590.8	1.07227
3600.45	1.07678
3610.09	1.08284
3619.73	1.08265
3629.37	1.08958
3639.02	1.0842
3648.66	1.08951
3658.3	1.08919
3667.94	1.09683
3677.59	1.09109
3687.23	1.10042
3696.87	1.09857
3706.51	1.10973
3716.16	1.10511
3725.8	1.10367
3735.44	1.10833
3745.08	1.11239
3754.72	1.1163
3764.37	1.11703
3774.01	1.12267
3783.65	1.11829
3793.29	1.11776
3802.94	1.12615
3812.58	1.12528
3822.22	1.13307
3831.86	1.13141
3841.51	1.13733
3851.15	1.13787
3860.79	1.13745
3870.43	1.14018
3880.07	1.14568
3889.72	1.14461
3899.36	1.14908
3909	1.15179
3918.64	1.16292
3928.29	1.1491
3937.93	1.15521
3947.57	1.14866
3957.21	1.15708
3966.86	1.15968
3976.5	1.16252
3986.14	1.17594
3995.78	1.17362
