Measurement: Infrared, Infrared Data Processed
Mineral: Eosphorite
Rruff sample: R050570
Ideal chemistry: Mn^2+^AlPO_4_(OH)_2_H_2_O
Locality: Lavra da Ilha, Minas Gerais, Brazil
Source: University of Arizona Mineral Museum
Description: Pale brown prismatic crystals with wedge-shaped terminations
Measured chemistry: (Mn_0.42_Fe^2+^_0.40_Ca_0.13_Mg_0.05_)Al(PO_4_)((OH)_0.96_F_0.04_)_2_Î‡H_2_O
x	intensity
399.193	0.154266
408.835	0.13534
418.477	0.134811
428.12	0.138015
437.762	0.139774
447.404	0.133526
457.047	0.126017
466.689	0.119515
476.331	0.106969
485.974	0.0876839
495.616	0.0777912
505.258	0.0794232
514.901	0.0884871
524.543	0.0956633
534.185	0.102369
543.828	0.119709
553.47	0.14718
563.112	0.175271
572.755	0.176283
582.397	0.151654
592.039	0.163356
601.682	0.162702
611.324	0.152139
620.966	0.135054
630.609	0.122283
640.251	0.129563
649.893	0.137521
659.536	0.126328
669.178	0.110275
678.82	0.102868
688.463	0.096938
698.105	0.0867828
707.747	0.0717407
717.39	0.0588773
727.032	0.0529781
736.674	0.0512848
746.317	0.0520546
755.959	0.0531089
765.601	0.057093
775.244	0.061762
784.886	0.0672044
794.528	0.0737517
804.171	0.0808134
813.813	0.0892134
823.455	0.100043
833.098	0.111002
842.74	0.121437
852.382	0.133251
862.025	0.145766
871.667	0.161089
881.309	0.176158
890.952	0.188692
900.594	0.19562
910.236	0.194224
919.879	0.187822
929.521	0.179445
939.163	0.167173
948.806	0.153826
958.448	0.153059
968.09	0.170524
977.733	0.206175
987.375	0.221055
997.017	0.233702
1006.66	0.265804
1016.3	0.278904
1025.94	0.271629
1035.59	0.247313
1045.23	0.210928
1054.87	0.177239
1064.51	0.161375
1074.16	0.164502
1083.8	0.153154
1093.44	0.123114
1103.08	0.0942792
1112.72	0.0725951
1122.37	0.0566023
1132.01	0.0485293
1141.65	0.0454158
1151.3	0.0463825
1160.94	0.0558423
1170.58	0.050939
1180.22	0.0409488
1189.86	0.0364458
1199.51	0.0336253
1209.15	0.0311688
1218.79	0.0297116
1228.43	0.028467
1238.08	0.0280454
1247.72	0.0274892
1257.36	0.0274831
1267	0.0276559
1276.64	0.0279571
1286.29	0.0281378
1295.93	0.0286066
1305.57	0.0287313
1315.21	0.0292618
1324.86	0.029376
1334.5	0.0293548
1344.14	0.029974
1353.78	0.029978
1363.43	0.0299525
1373.07	0.0297844
1382.71	0.0301577
1392.35	0.0301751
1401.99	0.0308474
1411.64	0.0310853
1421.28	0.0309532
1430.92	0.0317007
1440.57	0.0314886
1450.21	0.0312145
1459.85	0.0302877
1469.49	0.030713
1479.13	0.0316644
1488.78	0.0320558
1498.42	0.0319216
1508.06	0.0322486
1517.7	0.0324706
1527.35	0.0328125
1536.99	0.0328986
1546.63	0.0338342
1556.27	0.0336489
1565.91	0.0342188
1575.56	0.0352101
1585.2	0.0362847
1594.84	0.037351
1604.48	0.0393647
1614.13	0.040835
1623.77	0.041654
1633.41	0.0404964
1643.05	0.0367765
1652.7	0.0338332
1662.34	0.0314437
1671.98	0.0296156
1681.62	0.0284099
1691.27	0.0275516
1700.91	0.0269392
1710.55	0.0249321
1720.19	0.0248975
1729.84	0.02402
1739.48	0.0224649
1749.12	0.0243921
1758.76	0.0265119
1768.4	0.02727
1778.05	0.0274225
1787.69	0.0280515
1797.33	0.0282463
1806.97	0.0281523
1816.62	0.0277588
1826.26	0.0290458
1835.9	0.0279794
1845.54	0.0283798
1855.18	0.0286141
1864.83	0.027694
1874.47	0.0279955
1884.11	0.0274201
1893.75	0.0266195
1903.4	0.0269337
1913.04	0.0279123
1922.68	0.0267995
1932.32	0.0233338
1941.97	0.0257868
1951.61	0.0221829
1961.25	0.0226136
1970.89	0.0206592
1980.54	0.024186
1990.18	0.0238364
1999.82	0.0233339
2009.46	0.019743
2019.11	0.0177648
2028.75	0.0227593
2038.39	0.019872
2048.03	0.0198265
2057.67	0.0208735
2067.32	0.0200044
2076.96	0.0209268
2086.6	0.0201625
2096.24	0.0205908
2105.89	0.0190149
2115.53	0.0199915
2125.17	0.018991
2134.81	0.0163273
2144.45	0.0120518
2154.1	0.0126429
2163.74	0.0162527
2173.38	0.0168281
2183.02	0.0189414
2192.67	0.0190962
2202.31	0.0207838
2211.95	0.0184782
2221.59	0.0217964
2231.24	0.0208495
2240.88	0.021494
2250.52	0.0222661
2260.16	0.0219129
2269.8	0.023167
2279.45	0.0239343
2289.09	0.0237407
2298.73	0.024526
2308.38	0.0244803
2318.02	0.0256213
2327.66	0.0246625
2337.3	0.0242519
2346.94	0.0244284
2356.59	0.0236999
2366.23	0.0248519
2375.87	0.0242354
2385.51	0.0240815
2395.16	0.0257269
2404.8	0.0245399
2414.44	0.0249854
2424.08	0.0245343
2433.72	0.0259227
2443.37	0.0278406
2453.01	0.0257254
2462.65	0.0262584
2472.29	0.0262886
2481.94	0.0248523
2491.58	0.0280191
2501.22	0.0267101
2510.86	0.0253553
2520.51	0.0260996
2530.15	0.0267644
2539.79	0.0262431
2549.43	0.0283918
2559.07	0.0290289
2568.72	0.0283005
2578.36	0.0280723
2588	0.028375
2597.64	0.0282146
2607.29	0.0297274
2616.93	0.029326
2626.57	0.0299439
2636.21	0.0300375
2645.86	0.0303172
2655.5	0.0306792
2665.14	0.0298437
2674.78	0.0304512
2684.43	0.0305437
2694.07	0.0307005
2703.71	0.0305884
2713.35	0.0319154
2722.99	0.0323057
2732.64	0.0322627
2742.28	0.0312532
2751.92	0.0340811
2761.56	0.033878
2771.21	0.0347239
2780.85	0.0338583
2790.49	0.0350548
2800.13	0.0354907
2809.78	0.0356895
2819.42	0.0365157
2829.06	0.0373614
2838.7	0.0378107
2848.34	0.0387756
2857.99	0.0377056
2867.63	0.0393415
2877.27	0.0398013
2886.91	0.039418
2896.56	0.0417441
2906.2	0.0419388
2915.84	0.0438316
2925.48	0.041863
2935.13	0.0443592
2944.77	0.0458225
2954.41	0.0462561
2964.05	0.04781
2973.7	0.0469484
2983.34	0.0496489
2992.98	0.049746
3002.62	0.0532803
3012.26	0.053402
3021.91	0.053552
3031.55	0.0512164
3041.19	0.052631
3050.83	0.0523327
3060.48	0.0539545
3070.12	0.0526774
3079.76	0.0533525
3089.4	0.0525105
3099.05	0.054977
3108.69	0.0511495
3118.33	0.0535798
3127.97	0.0547857
3137.61	0.054186
3147.26	0.0527864
3156.9	0.0550999
3166.54	0.0537926
3176.18	0.0558772
3185.83	0.0564303
3195.47	0.0557559
3205.11	0.053274
3214.75	0.0562245
3224.4	0.0579752
3234.04	0.0579148
3243.68	0.0604791
3253.32	0.0621848
3262.97	0.0635212
3272.61	0.0655614
3282.25	0.066649
3291.89	0.0690512
3301.53	0.0696315
3311.18	0.0698063
3320.82	0.0680724
3330.46	0.0711387
3340.1	0.0642165
3349.75	0.0671747
3359.39	0.0612881
3369.03	0.0641656
3378.67	0.0652462
3388.32	0.0633316
3397.96	0.0664078
3407.6	0.0708162
3417.24	0.0764967
3426.89	0.0895201
3436.53	0.0971722
3446.17	0.0999184
3455.81	0.0954681
3465.45	0.082552
3475.1	0.0654567
3484.74	0.0482375
3494.38	0.0341949
3504.02	0.027709
3513.67	0.021081
3523.31	0.0192427
3532.95	0.0210309
3542.59	0.0153475
3552.24	0.016188
3561.88	0.0144653
3571.52	0.013723
3581.16	0.014675
3590.8	0.015886
3600.45	0.0150112
3610.09	0.0132288
3619.73	0.00939058
3629.37	0.00927394
3639.02	0.0120971
3648.66	0.00793433
3658.3	0.0147977
3667.94	0.0103961
3677.59	0.0118929
3687.23	0.010594
3696.87	0.0114441
3706.51	0.0148604
3716.16	0.0125118
3725.8	0.0092998
3735.44	0.0118979
3745.08	0.0113935
3754.72	0.0122912
3764.37	0.0144523
3774.01	0.00907858
3783.65	0.0132706
3793.29	0.00840587
3802.94	0.0131241
3812.58	0.00716034
3822.22	0.0135538
3831.86	0.0136957
3841.51	0.0111864
3851.15	0.0145378
3860.79	0.0136262
3870.43	0.0119882
3880.07	0.010457
3889.72	0.0119002
3899.36	0.01465
3909	0.0161219
3918.64	0.0148663
3928.29	0.0139734
3937.93	0.0147561
3947.57	0.0116525
3957.21	0.0173078
3966.86	0.0127212
3976.5	0.0112678
3986.14	0.0156302
3995.78	0.0214887
