Measurement: Infrared, Infrared Data Processed
Mineral: Epidote
Rruff sample: R050303
Ideal chemistry: Ca_2_Fe^3+^Al_2_(Si_2_O_7_)(SiO_4_)O(OH)
Locality: San Martin mine, Zacatecas, Mexico
Source: Eugene Schlepp
Description: Green elongated prismatic crystals
Measured chemistry: Ca_2.00_Al_2.00_(Fe^3+^_0.97_Al_0.03_)(SiO_4_)(Si_2_O_7_)O(OH)
x	intensity
399.193	0.260835
408.835	0.211231
418.477	0.186558
428.12	0.188286
437.762	0.225042
447.404	0.275205
457.047	0.237292
466.689	0.198973
476.331	0.170748
485.974	0.204698
495.616	0.285209
505.258	0.326002
514.901	0.290307
524.543	0.240181
534.185	0.21044
543.828	0.198989
553.47	0.199428
563.112	0.195328
572.755	0.171028
582.397	0.147948
592.039	0.134217
601.682	0.126522
611.324	0.133688
620.966	0.187406
630.609	0.236979
640.251	0.255529
649.893	0.223306
659.536	0.176095
669.178	0.142025
678.82	0.113669
688.463	0.0843644
698.105	0.0690683
707.747	0.0663402
717.39	0.07297
727.032	0.0538241
736.674	0.045999
746.317	0.0471026
755.959	0.0505419
765.601	0.0561525
775.244	0.0643657
784.886	0.0772782
794.528	0.0982526
804.171	0.133298
813.813	0.18827
823.455	0.248963
833.098	0.277898
842.74	0.273241
852.382	0.314217
862.025	0.330372
871.667	0.375502
881.309	0.353639
890.952	0.306728
900.594	0.275263
910.236	0.246227
919.879	0.26321
929.521	0.321723
939.163	0.360366
948.806	0.329725
958.448	0.242472
968.09	0.172708
977.733	0.126246
987.375	0.0957965
997.017	0.0754744
1006.66	0.0696456
1016.3	0.0838549
1025.94	0.138292
1035.59	0.15684
1045.23	0.119058
1054.87	0.10982
1064.51	0.144312
1074.16	0.162896
1083.8	0.141742
1093.44	0.12824
1103.08	0.13598
1112.72	0.118755
1122.37	0.084896
1132.01	0.0518689
1141.65	0.0294014
1151.3	0.0204414
1160.94	0.0155396
1170.58	0.0122786
1180.22	0.0102697
1189.86	0.00886297
1199.51	0.00735722
1209.15	0.00601653
1218.79	0.00486695
1228.43	0.00439406
1238.08	0.00423737
1247.72	0.00400117
1257.36	0.00387003
1267	0.00358321
1276.64	0.00384504
1286.29	0.00355891
1295.93	0.00374057
1305.57	0.00394275
1315.21	0.00410946
1324.86	0.00450677
1334.5	0.00465844
1344.14	0.00456367
1353.78	0.00489097
1363.43	0.00534098
1373.07	0.00579514
1382.71	0.00610274
1392.35	0.00792358
1401.99	0.00939562
1411.64	0.0108091
1421.28	0.0120989
1430.92	0.0121051
1440.57	0.0119263
1450.21	0.0116623
1459.85	0.010612
1469.49	0.0101736
1479.13	0.0119487
1488.78	0.0123348
1498.42	0.0117888
1508.06	0.0121213
1517.7	0.0111272
1527.35	0.0109266
1536.99	0.0111074
1546.63	0.010967
1556.27	0.011636
1565.91	0.0114653
1575.56	0.0115223
1585.2	0.0119933
1594.84	0.0121161
1604.48	0.0112486
1614.13	0.0116082
1623.77	0.0117083
1633.41	0.0121059
1643.05	0.0121309
1652.7	0.0131101
1662.34	0.0122863
1671.98	0.0118052
1681.62	0.0112473
1691.27	0.0111594
1700.91	0.00997671
1710.55	0.00823027
1720.19	0.00775343
1729.84	0.00562968
1739.48	0.00221288
1749.12	0.00353916
1758.76	0.00827547
1768.4	0.0100589
1778.05	0.0105737
1787.69	0.01011
1797.33	0.0104043
1806.97	0.0104896
1816.62	0.00993818
1826.26	0.0104147
1835.9	0.00976745
1845.54	0.0101032
1855.18	0.00933544
1864.83	0.00969782
1874.47	0.0100839
1884.11	0.0101268
1893.75	0.0113722
1903.4	0.00880666
1913.04	0.00969179
1922.68	0.0102141
1932.32	0.00901958
1941.97	0.0108716
1951.61	0.0091224
1961.25	0.00824408
1970.89	0.0103228
1980.54	0.0140632
1990.18	0.0129408
1999.82	0.0133559
2009.46	0.011991
2019.11	0.0156211
2028.75	0.0128319
2038.39	0.0120921
2048.03	0.0113134
2057.67	0.0120094
2067.32	0.0156526
2076.96	0.013179
2086.6	0.0134531
2096.24	0.0151483
2105.89	0.0126033
2115.53	0.0123221
2125.17	0.0114633
2134.81	0.00953477
2144.45	0.00850471
2154.1	0.00792911
2163.74	0.0124717
2173.38	0.0147785
2183.02	0.0125153
2192.67	0.0122506
2202.31	0.0159834
2211.95	0.0158659
2221.59	0.0166625
2231.24	0.0123836
2240.88	0.0152308
2250.52	0.0161364
2260.16	0.0181723
2269.8	0.0196319
2279.45	0.0207845
2289.09	0.0207342
2298.73	0.0201373
2308.38	0.0206718
2318.02	0.0198987
2327.66	0.0202995
2337.3	0.0197183
2346.94	0.0199379
2356.59	0.0200251
2366.23	0.0192548
2375.87	0.0193825
2385.51	0.0204399
2395.16	0.0208689
2404.8	0.0215884
2414.44	0.0212582
2424.08	0.0223969
2433.72	0.0215278
2443.37	0.0202823
2453.01	0.0231247
2462.65	0.0221113
2472.29	0.021572
2481.94	0.0217473
2491.58	0.0228355
2501.22	0.0230114
2510.86	0.0242759
2520.51	0.0224982
2530.15	0.023328
2539.79	0.0225226
2549.43	0.0228481
2559.07	0.0241137
2568.72	0.0225683
2578.36	0.0236822
2588	0.0255167
2597.64	0.0259248
2607.29	0.0252424
2616.93	0.0259452
2626.57	0.0242534
2636.21	0.0254658
2645.86	0.0246507
2655.5	0.0259815
2665.14	0.0253064
2674.78	0.0242031
2684.43	0.0258971
2694.07	0.0251851
2703.71	0.0257248
2713.35	0.0268051
2722.99	0.026484
2732.64	0.0275837
2742.28	0.0258904
2751.92	0.0283563
2761.56	0.0272595
2771.21	0.0272756
2780.85	0.0287325
2790.49	0.0276395
2800.13	0.0289287
2809.78	0.0311152
2819.42	0.0286273
2829.06	0.0277823
2838.7	0.0303232
2848.34	0.0291323
2857.99	0.0307046
2867.63	0.0310922
2877.27	0.0299956
2886.91	0.030912
2896.56	0.0306397
2906.2	0.0295639
2915.84	0.0307451
2925.48	0.0312326
2935.13	0.0335769
2944.77	0.0331234
2954.41	0.031864
2964.05	0.0359302
2973.7	0.0340192
2983.34	0.0350634
2992.98	0.0363969
3002.62	0.036602
3012.26	0.0363516
3021.91	0.0381351
3031.55	0.0343935
3041.19	0.0377715
3050.83	0.0371018
3060.48	0.0376029
3070.12	0.0370669
3079.76	0.0394203
3089.4	0.0402094
3099.05	0.0395656
3108.69	0.042288
3118.33	0.0408255
3127.97	0.0424174
3137.61	0.0418921
3147.26	0.0438722
3156.9	0.0400652
3166.54	0.0424601
3176.18	0.0429618
3185.83	0.0458974
3195.47	0.0469384
3205.11	0.0481005
3214.75	0.0444139
3224.4	0.0494793
3234.04	0.0492836
3243.68	0.0496101
3253.32	0.0513454
3262.97	0.0526031
3272.61	0.0496526
3282.25	0.0555042
3291.89	0.055192
3301.53	0.0606947
3311.18	0.0630202
3320.82	0.0629599
3330.46	0.0682981
3340.1	0.0757207
3349.75	0.0822477
3359.39	0.0864599
3369.03	0.0894068
3378.67	0.0898594
3388.32	0.0806081
3397.96	0.0675349
3407.6	0.0585185
3417.24	0.0542738
3426.89	0.0481903
3436.53	0.0508733
3446.17	0.0464894
3455.81	0.0466751
3465.45	0.0447706
3475.1	0.0458332
3484.74	0.0475647
3494.38	0.0422148
3504.02	0.0433422
3513.67	0.0435682
3523.31	0.0451203
3532.95	0.0440761
3542.59	0.0418581
3552.24	0.0446006
3561.88	0.0407871
3571.52	0.0449332
3581.16	0.0421518
3590.8	0.0385398
3600.45	0.042162
3610.09	0.0404561
3619.73	0.0387756
3629.37	0.0399352
3639.02	0.0339714
3648.66	0.0372317
3658.3	0.0397389
3667.94	0.0380674
3677.59	0.0373661
3687.23	0.0352494
3696.87	0.0406204
3706.51	0.0410528
3716.16	0.0377142
3725.8	0.0387885
3735.44	0.0345165
3745.08	0.0425182
3754.72	0.0391383
3764.37	0.0410715
3774.01	0.0374854
3783.65	0.0397746
3793.29	0.0425704
3802.94	0.0345552
3812.58	0.0400895
3822.22	0.0384951
3831.86	0.0411928
3841.51	0.0396691
3851.15	0.040212
3860.79	0.0424425
3870.43	0.0477822
3880.07	0.0418204
3889.72	0.0421313
3899.36	0.0431103
3909	0.0449635
3918.64	0.0383015
3928.29	0.040223
3937.93	0.0417506
3947.57	0.0412744
3957.21	0.042792
3966.86	0.0458739
3976.5	0.0411839
3986.14	0.0440344
3995.78	0.0409955
