Measurement: Infrared, Infrared Data Processed
Mineral: Epidote
Rruff sample: R050191
Ideal chemistry: Ca_2_Fe^3+^Al_2_(Si_2_O_7_)(SiO_4_)O(OH)
Locality: Pampa Blanca, Castrovirreyna Province, Huancavelica Department, Peru
Source: Dave Bunk Minerals
Description: Cluster of green elongated prismatic crystals
Measured chemistry: Ca_2.00_Al_2.00_(Fe^3+^_0.84_Al_0.16_)(SiO_4_)(Si_2_O_7_)O(OH)
x	intensity
374.123	0.357601
383.765	0.277668
393.407	0.273427
403.05	0.208618
412.692	0.173065
422.334	0.158168
431.976	0.156732
441.619	0.181289
451.261	0.203976
460.904	0.173111
470.546	0.149019
480.188	0.13109
489.83	0.162749
499.473	0.215134
509.115	0.245416
518.758	0.225028
528.4	0.186916
538.042	0.16759
547.684	0.160858
557.327	0.158027
566.969	0.150162
576.611	0.130341
586.254	0.112578
595.896	0.0988906
605.538	0.0882043
615.181	0.103941
624.823	0.150305
634.466	0.179043
644.108	0.191183
653.75	0.162546
663.393	0.127993
673.035	0.101874
682.677	0.0801599
692.319	0.0583307
701.962	0.0482733
711.604	0.0458945
721.246	0.0511869
730.889	0.0337153
740.531	0.0303016
750.173	0.0318484
759.816	0.0356841
769.458	0.0409249
779.101	0.0480477
788.743	0.0590119
798.385	0.0753992
808.028	0.099936
817.67	0.134783
827.312	0.172114
836.955	0.185797
846.597	0.186101
856.239	0.214295
865.881	0.224776
875.524	0.262463
885.166	0.245776
894.808	0.21425
904.451	0.19298
914.093	0.176144
923.736	0.188391
933.378	0.22983
943.02	0.253612
952.663	0.232033
962.305	0.176988
971.947	0.126969
981.59	0.0917872
991.232	0.0678215
1000.87	0.0518958
1010.52	0.0479639
1020.16	0.0623595
1029.8	0.105374
1039.44	0.105368
1049.09	0.079871
1058.73	0.0783538
1068.37	0.101729
1078.01	0.109414
1087.65	0.0977423
1097.3	0.094251
1106.94	0.0953323
1116.58	0.0818217
1126.22	0.0577203
1135.87	0.0333797
1145.51	0.0189185
1155.15	0.013785
1164.79	0.011015
1174.44	0.00882933
1184.08	0.00763773
1193.72	0.00650747
1203.36	0.00575754
1213.01	0.00528471
1222.65	0.00512384
1232.29	0.00482048
1241.93	0.00485318
1251.58	0.00478517
1261.22	0.00454824
1270.86	0.00446308
1280.5	0.00472492
1290.14	0.00444643
1299.79	0.00432653
1309.43	0.00446719
1319.07	0.00433844
1328.71	0.0044489
1338.36	0.00482083
1348	0.00462205
1357.64	0.00493339
1367.28	0.00529168
1376.92	0.0054445
1386.57	0.00582799
1396.21	0.00629333
1405.85	0.00659021
1415.49	0.00678809
1425.14	0.00706856
1434.78	0.00721795
1444.42	0.00727678
1454.06	0.00763864
1463.71	0.00758798
1473.35	0.00787071
1482.99	0.00745463
1492.63	0.00775932
1502.28	0.00798507
1511.92	0.00806807
1521.56	0.00880283
1531.2	0.00824813
1540.85	0.00930473
1550.49	0.00839722
1560.13	0.00949531
1569.77	0.00852478
1579.41	0.00869183
1589.06	0.0083284
1598.7	0.00878277
1608.34	0.00869128
1617.98	0.00953999
1627.63	0.00938924
1637.27	0.00951986
1646.91	0.0100178
1656.55	0.00945511
1666.19	0.00959551
1675.84	0.0100273
1685.48	0.010522
1695.12	0.0105872
1704.77	0.00966631
1714.41	0.00983546
1724.05	0.00920227
1733.69	0.00959972
1743.33	0.00880866
1752.98	0.00880696
1762.62	0.00894882
1772.26	0.00948731
1781.9	0.00904696
1791.55	0.00901184
1801.19	0.00893055
1810.83	0.00864827
1820.47	0.00912507
1830.12	0.00922751
1839.76	0.00892647
1849.4	0.00875299
1859.04	0.00862416
1868.68	0.00894273
1878.33	0.00914872
1887.97	0.00890923
1897.61	0.00845299
1907.25	0.00814135
1916.9	0.00875935
1926.54	0.0075425
1936.18	0.00842915
1945.82	0.00816537
1955.46	0.00909446
1965.11	0.00857882
1974.75	0.00875331
1984.39	0.010711
1994.04	0.0108559
2003.68	0.00832596
2013.32	0.00978208
2022.96	0.00858044
2032.6	0.00962021
2042.25	0.00946475
2051.89	0.00938411
2061.53	0.00914398
2071.17	0.00908782
2080.82	0.00975472
2090.46	0.00968847
2100.1	0.0106636
2109.74	0.0110794
2119.39	0.00983282
2129.03	0.00747442
2138.67	0.00786975
2148.31	0.00633561
2157.95	0.00274482
2167.6	0.0082819
2177.24	0.00448602
2186.88	0.00762238
2196.52	0.0083273
2206.17	0.00861402
2215.81	0.00779396
2225.45	0.00814201
2235.09	0.00874041
2244.74	0.00825524
2254.38	0.00816445
2264.02	0.00997491
2273.66	0.0107367
2283.3	0.0123814
2292.95	0.0119483
2302.59	0.0122787
2312.23	0.0126481
2321.87	0.0136578
2331.52	0.0130127
2341.16	0.0137634
2350.8	0.0129327
2360.44	0.0133412
2370.09	0.0132289
2379.73	0.0125663
2389.37	0.0124417
2399.01	0.0118146
2408.66	0.0123868
2418.3	0.0122599
2427.94	0.0126476
2437.58	0.0129628
2447.22	0.0125351
2456.87	0.0129035
2466.51	0.0128743
2476.15	0.0128169
2485.79	0.013245
2495.44	0.0134656
2505.08	0.0127751
2514.72	0.0125369
2524.36	0.0121587
2534.01	0.0118468
2543.65	0.0128182
2553.29	0.0124582
2562.93	0.0129986
2572.57	0.0125945
2582.22	0.0128819
2591.86	0.0126529
2601.5	0.0126181
2611.14	0.0122446
2620.79	0.0132863
2630.43	0.0132639
2640.07	0.0130093
2649.71	0.0128076
2659.36	0.0130437
2669	0.0129634
2678.64	0.0126538
2688.28	0.0124709
2697.93	0.0127466
2707.57	0.0131655
2717.21	0.0125741
2726.85	0.0126662
2736.49	0.0125226
2746.14	0.0128626
2755.78	0.0134652
2765.42	0.0135252
2775.06	0.0132878
2784.71	0.0133166
2794.35	0.0131756
2803.99	0.0132245
2813.63	0.0137018
2823.28	0.0138246
2832.92	0.0137948
2842.56	0.0146653
2852.2	0.0147213
2861.84	0.0146022
2871.49	0.013697
2881.13	0.0140829
2890.77	0.0145174
2900.41	0.0149845
2910.06	0.0150856
2919.7	0.0154461
2929.34	0.0156654
2938.98	0.0143333
2948.62	0.0150681
2958.27	0.014078
2967.91	0.013964
2977.55	0.0138144
2987.2	0.0139927
2996.84	0.0131817
3006.48	0.0131267
3016.12	0.0136268
3025.76	0.0137673
3035.41	0.013915
3045.05	0.013585
3054.69	0.0138928
3064.33	0.0146644
3073.98	0.0135359
3083.62	0.0137199
3093.26	0.0144093
3102.9	0.0139874
3112.55	0.0147914
3122.19	0.0140962
3131.83	0.0145959
3141.47	0.0165535
3151.11	0.0160415
3160.76	0.0162363
3170.4	0.0158013
3180.04	0.0165015
3189.68	0.0176141
3199.33	0.0171469
3208.97	0.0164345
3218.61	0.0169938
3228.25	0.0175769
3237.9	0.0182966
3247.54	0.0189617
3257.18	0.0194192
3266.82	0.0202268
3276.47	0.0214959
3286.11	0.0216816
3295.75	0.0218041
3305.39	0.0223956
3315.03	0.0250065
3324.68	0.0273193
3334.32	0.029817
3343.96	0.0346282
3353.6	0.0384001
3363.25	0.0422072
3372.89	0.0404713
3382.53	0.0351808
3392.17	0.0273503
3401.82	0.021386
3411.46	0.018415
3421.1	0.0151121
3430.74	0.0128257
3440.39	0.0121195
3450.03	0.0121653
3459.67	0.0110291
3469.31	0.0100522
3478.95	0.0107148
3488.6	0.00983538
3498.24	0.0092046
3507.88	0.00781943
3517.52	0.00838624
3527.17	0.0088951
3536.81	0.00815156
3546.45	0.00803309
3556.09	0.0067552
3565.74	0.00679085
3575.38	0.00680219
3585.02	0.00628398
3594.66	0.00662607
3604.3	0.0065918
3613.95	0.00484924
3623.59	0.00464529
3633.23	0.00443816
3642.87	0.00414107
3652.52	0.00537548
3662.16	0.00508459
3671.8	0.00590494
3681.44	0.00461339
3691.09	0.00259953
3700.73	0.00495584
3710.37	0.00451229
3720.01	0.00321669
3729.66	0.0021585
3739.3	0.00326204
3748.94	0.00535886
3758.58	0.0043675
3768.22	0.00379854
3777.87	0.00407277
3787.51	0.0022425
3797.15	0.00114871
3806.79	0.00221022
3816.44	0.0043513
3826.08	0.00243431
3835.72	0.00240952
3845.36	0.00377197
3855.01	0.00402379
3864.65	0.00168908
3874.29	0.000653021
3883.93	0.00167174
3893.57	0.000797856
3903.22	0.000974518
3912.86	0.00213004
3922.5	0.00108363
3932.14	0.00257017
3941.79	0.000702811
3951.43	0.00115477
3961.07	0.000984891
3970.71	0.00265665
3980.36	0.000883593
3990	0.00211564
3999.64	0.000785118
