Measurement: Infrared, Infrared Data Processed
Mineral: Eudialyte
Rruff sample: R050230
Ideal chemistry: Na_15_Ca_6_Fe^2+^_3_Zr^4+^_3_Si(Si_25_O_73_)(O,OH,H_2_O)_3_(Cl,OH)_2_
Locality: Kipawa alkaline complex, near Sheffield Lake, Villedieu Township, Temiscamingue County, Quebec, Canada
Source: Marcus Origlieri
Description: Massive aggregate of red crystals
Measured chemistry: (Na_14.50_K_0.35_Ca_0.15_)_Σ=15_Ca_6.00_(Fe_1.86_Mn_1.01_Mg_0.13_)_Σ=3_(Zr_2.91_Ti_0.09_)_3_(Si_0.94_Nb_0.06_)_Σ=1.00_(Si_25.00_O_73_)(OH)_1.10_(H_2_O)_1.90_)_Σ=3_(Cl_1.17_(OH)_0.83_)_Σ=2_
x	intensity
395.336	0.0482156
404.978	0.0442802
414.62	0.0466077
424.263	0.0499629
433.905	0.0637116
443.547	0.0937833
453.19	0.100556
462.832	0.0864214
472.474	0.0922551
482.117	0.100896
491.759	0.0806145
501.401	0.0533371
511.044	0.0429959
520.686	0.0459157
530.328	0.047195
539.971	0.0385118
549.613	0.0328242
559.255	0.0239525
568.898	0.0193033
578.54	0.0174144
588.182	0.0164544
597.825	0.0161649
607.467	0.0166459
617.109	0.0164665
626.752	0.0167843
636.394	0.0193837
646.036	0.0244412
655.679	0.0291202
665.321	0.0272938
674.963	0.026321
684.606	0.0269588
694.248	0.0286227
703.89	0.0276178
713.533	0.0249168
723.175	0.0289453
732.817	0.046419
742.46	0.0593057
752.102	0.042846
761.744	0.0264276
771.387	0.0181694
781.029	0.0152588
790.671	0.0142879
800.314	0.013857
809.956	0.0142417
819.598	0.0158329
829.241	0.0180975
838.883	0.0215176
848.525	0.026868
858.168	0.0346512
867.81	0.0449377
877.452	0.0597814
887.095	0.0744199
896.737	0.0994375
906.379	0.121761
916.022	0.141968
925.664	0.156832
935.306	0.158744
944.949	0.153014
954.591	0.14998
964.233	0.154889
973.876	0.156996
983.518	0.151537
993.16	0.143551
1002.8	0.141291
1012.45	0.1419
1022.09	0.132141
1031.73	0.114621
1041.37	0.0986748
1051.01	0.0884631
1060.66	0.0813473
1070.3	0.0729478
1079.94	0.0616416
1089.58	0.0462389
1099.23	0.0362614
1108.87	0.0305652
1118.51	0.0268364
1128.15	0.0236911
1137.8	0.0208817
1147.44	0.0172437
1157.08	0.0138669
1166.72	0.0109295
1176.37	0.00856975
1186.01	0.00669081
1195.65	0.00525975
1205.29	0.00398954
1214.93	0.00308273
1224.58	0.00220323
1234.22	0.0017764
1243.86	0.00178249
1253.5	0.00134666
1263.15	0.00128461
1272.79	0.00123018
1282.43	0.00150228
1292.07	0.00119765
1301.71	0.00135207
1311.36	0.00147113
1321	0.00151945
1330.64	0.00170145
1340.28	0.00223444
1349.93	0.00250883
1359.57	0.00304008
1369.21	0.00363608
1378.85	0.00422344
1388.5	0.00533356
1398.14	0.00603641
1407.78	0.00723827
1417.42	0.00928781
1427.07	0.00992463
1436.71	0.0100862
1446.35	0.00934562
1455.99	0.0100039
1465.63	0.00947367
1475.28	0.0092712
1484.92	0.0100191
1494.56	0.00991472
1504.2	0.01027
1513.85	0.00910356
1523.49	0.00710971
1533.13	0.0055933
1542.77	0.00495086
1552.42	0.00456678
1562.06	0.00429738
1571.7	0.00418204
1581.34	0.00401022
1590.98	0.00385444
1600.63	0.00374421
1610.27	0.00332766
1619.91	0.00311091
1629.55	0.00306093
1639.2	0.00278612
1648.84	0.00289914
1658.48	0.00255755
1668.12	0.00221551
1677.77	0.00155042
1687.41	0.00146056
1697.05	0.000977772
1706.69	0.000671463
1716.34	0.000957987
1725.98	0.000179478
1735.62	0.000286976
1745.26	0.000250929
1754.9	-1.5297e-05
1764.55	-5.71012e-05
1774.19	-0.000244579
1783.83	-0.000369067
1793.47	-0.000258408
1803.12	-0.000596479
1812.76	-0.000610372
1822.4	-0.000934085
1832.04	-0.000841244
1841.69	-0.00094694
1851.33	-0.00106801
1860.97	-0.00159463
1870.61	-0.00124992
1880.26	-0.00136894
1889.9	-0.00175439
1899.54	-0.00145222
1909.18	-0.00180288
1918.82	-0.00110915
1928.47	-0.0014356
1938.11	-0.00195405
1947.75	-0.00271865
1957.39	-0.00252398
1967.04	-0.00360225
1976.68	-0.00355675
1986.32	-0.0033336
1995.96	-0.00269042
2005.61	-0.00383712
2015.25	-0.0022311
2024.89	-0.00273585
2034.53	-0.00420893
2044.17	-0.00378785
2053.82	-0.00217703
2063.46	-0.00297819
2073.1	-0.00280771
2082.74	-0.00238592
2092.39	-0.00226623
2102.03	-0.00205009
2111.67	-0.00256769
2121.31	-0.00203484
2130.96	-0.000881213
2140.6	-0.000747894
2150.24	-0.00180366
2159.88	-0.00286015
2169.53	-0.00150422
2179.17	-0.00184301
2188.81	-0.00137588
2198.45	-0.000270629
2208.09	-0.00127195
2217.74	-0.000976899
2227.38	-0.00109915
2237.02	0.000448504
2246.66	-0.000933221
2256.31	-0.00104214
2265.95	-0.00129482
2275.59	-0.000887562
2285.23	-0.00134378
2294.88	-0.000750222
2304.52	-0.000667087
2314.16	-0.000971825
2323.8	-0.000670839
2333.45	0.000156109
2343.09	0.000220172
2352.73	2.01138e-05
2362.37	0.00115866
2372.01	0.000544664
2381.66	-0.000811159
2391.3	-0.000317322
2400.94	-0.000736874
2410.58	-0.000699015
2420.23	-0.000651389
2429.87	-0.000112721
2439.51	-0.000563221
2449.15	-0.00119071
2458.8	-0.000564429
2468.44	-2.00785e-05
2478.08	-0.000425972
2487.72	-0.000137687
2497.36	-0.000290315
2507.01	-0.000521317
2516.65	-0.000175922
2526.29	-0.000340239
2535.93	-0.000874332
2545.58	-0.000962889
2555.22	-0.00108449
2564.86	-0.00128836
2574.5	-0.00072513
2584.14	-0.00101748
2593.79	-0.00079933
2603.43	-0.00126677
2613.07	-0.000789154
2622.72	-0.000964807
2632.36	-0.00134
2642	-0.00127953
2651.64	-0.00121437
2661.28	-0.000717064
2670.93	-0.000873564
2680.57	-0.000559775
2690.21	-0.000604931
2699.85	-0.000765725
2709.5	-0.000382285
2719.14	-0.000686156
2728.78	-0.000277395
2738.42	-0.000570002
2748.07	-0.000217673
2757.71	-0.000518798
2767.35	-0.000514583
2776.99	0.000230099
2786.63	0.000195418
2796.28	0.00014734
2805.92	0.000390909
2815.56	6.82727e-05
2825.2	0.00024984
2834.85	0.000555196
2844.49	0.000418475
2854.13	0.000430285
2863.77	0.00071462
2873.41	0.000989496
2883.06	0.000472074
2892.7	0.000612482
2902.34	0.000445388
2911.99	0.000680648
2921.63	0.000825866
2931.27	0.00137771
2940.91	0.000936617
2950.55	0.00109984
2960.2	0.0012608
2969.84	0.000977224
2979.48	0.000772641
2989.12	0.000673762
2998.77	0.000877559
3008.41	0.000244343
3018.05	0.00165023
3027.69	0.000690981
3037.34	0.00133565
3046.98	0.000918234
3056.62	0.000785746
3066.26	0.00135773
3075.9	0.000976117
3085.55	0.00101099
3095.19	0.00195922
3104.83	0.00108558
3114.47	0.0010936
3124.12	0.00134845
3133.76	0.00165324
3143.4	0.00183436
3153.04	0.00121058
3162.68	0.00207913
3172.33	0.00191737
3181.97	0.00206247
3191.61	0.0023866
3201.26	0.00206607
3210.9	0.00235777
3220.54	0.00186033
3230.18	0.00211564
3239.82	0.00181377
3249.47	0.00256228
3259.11	0.00196247
3268.75	0.00238265
3278.39	0.00131823
3288.04	0.00179339
3297.68	0.00170579
3307.32	0.00174755
3316.96	0.00168037
3326.61	0.00189396
3336.25	0.00130951
3345.89	0.00238361
3355.53	0.00159613
3365.17	0.00169149
3374.82	0.00237415
3384.46	0.00189917
3394.1	0.00207848
3403.74	0.00125093
3413.39	0.00185772
3423.03	0.00153848
3432.67	0.000589376
3442.31	0.0015207
3451.95	0.00170017
3461.6	0.0016434
3471.24	0.000923141
3480.88	0.000759442
3490.53	0.00104174
3500.17	0.000833678
3509.81	0.00100962
3519.45	0.000319784
3529.09	0.00101218
3538.74	-0.000378614
3548.38	4.12474e-05
3558.02	-0.000128721
3567.66	-0.000375348
3577.31	-0.000518762
3586.95	-0.000859055
3596.59	-0.000209702
3606.23	-0.00227382
3615.88	-0.00261457
3625.52	-0.00252963
3635.16	-0.00326995
3644.8	-0.00320085
3654.44	-0.0038223
3664.09	-0.00373389
3673.73	-0.00422341
3683.37	-0.00410213
3693.01	-0.00502246
3702.66	-0.00516896
3712.3	-0.00456076
3721.94	-0.00517146
3731.58	-0.00405758
3741.22	-0.00455619
3750.87	-0.00386142
3760.51	-0.00570487
3770.15	-0.0051929
3779.8	-0.00496464
3789.44	-0.00647193
3799.08	-0.00514804
3808.72	-0.00480118
3818.36	-0.00583676
3828.01	-0.00482289
3837.65	-0.00454989
3847.29	-0.00595879
3856.93	-0.00434171
3866.58	-0.00568636
3876.22	-0.00560596
3885.86	-0.00448153
3895.5	-0.0061953
3905.14	-0.00619529
3914.79	-0.00601567
3924.43	-0.00564754
3934.07	-0.00549302
3943.71	-0.00637711
3953.36	-0.0065421
3963	-0.00702131
3972.64	-0.00646905
3982.28	-0.00590859
3991.93	-0.00685087
