Measurement: Infrared, Infrared Data Processed
Mineral: Fayalite
Rruff sample: R070293
Ideal chemistry: Fe^2+^_2_SiO_4_
Locality: Pike's Peak, Teller County, Colorado, USA
Source: Michael Scott
Description: Black single crystal fragment with internal hints of red and green
Measured chemistry: (Fe^2+^_1.87_Mn^2+^_0.13_)_Î£=2_Si_1.00_O_4_ ; trace amounts of Mg
x	intensity
399.193	0.0418149
408.835	0.0508882
418.477	0.0655458
428.12	0.0920897
437.762	0.130083
447.404	0.162439
457.047	0.193421
466.689	0.207407
476.331	0.18369
485.974	0.163193
495.616	0.158092
505.258	0.144223
514.901	0.119618
524.543	0.094039
534.185	0.0812059
543.828	0.0930221
553.47	0.107273
563.112	0.105681
572.755	0.0903644
582.397	0.0681889
592.039	0.0469567
601.682	0.0334607
611.324	0.0295602
620.966	0.0277548
630.609	0.0266397
640.251	0.0275587
649.893	0.0286834
659.536	0.0305989
669.178	0.0328352
678.82	0.0348476
688.463	0.0371116
698.105	0.0402888
707.747	0.0443012
717.39	0.0492985
727.032	0.0554767
736.674	0.0626716
746.317	0.0713305
755.959	0.0820817
765.601	0.0956592
775.244	0.112287
784.886	0.131937
794.528	0.155169
804.171	0.181943
813.813	0.213492
823.455	0.246212
833.098	0.193193
842.74	0.235055
852.382	0.274549
862.025	0.281227
871.667	0.261841
881.309	0.229355
890.952	0.199424
900.594	0.177116
910.236	0.162218
919.879	0.132908
929.521	0.106149
939.163	0.159609
948.806	0.137566
958.448	0.104611
968.09	0.0952254
977.733	0.0823004
987.375	0.0674969
997.017	0.0534091
1006.66	0.0405039
1016.3	0.0304894
1025.94	0.0248442
1035.59	0.022107
1045.23	0.0198625
1054.87	0.0177198
1064.51	0.0156634
1074.16	0.0143036
1083.8	0.0133505
1093.44	0.012051
1103.08	0.0113172
1112.72	0.0105936
1122.37	0.0104656
1132.01	0.0105529
1141.65	0.0100343
1151.3	0.00951161
1160.94	0.00900263
1170.58	0.00854168
1180.22	0.00813171
1189.86	0.00785702
1199.51	0.00764903
1209.15	0.00751987
1218.79	0.00749025
1228.43	0.00749291
1238.08	0.00768853
1247.72	0.00804734
1257.36	0.00822549
1267	0.00865367
1276.64	0.00912356
1286.29	0.0093844
1295.93	0.00978361
1305.57	0.00993198
1315.21	0.0102904
1324.86	0.0104525
1334.5	0.0107671
1344.14	0.0110183
1353.78	0.0112026
1363.43	0.0115718
1373.07	0.0122072
1382.71	0.0124795
1392.35	0.0132647
1401.99	0.0136771
1411.64	0.0142954
1421.28	0.01489
1430.92	0.0152973
1440.57	0.0156974
1450.21	0.0159636
1459.85	0.0161489
1469.49	0.0161928
1479.13	0.0160179
1488.78	0.0162886
1498.42	0.0163104
1508.06	0.0167558
1517.7	0.0167198
1527.35	0.0168258
1536.99	0.0174463
1546.63	0.0174316
1556.27	0.0179098
1565.91	0.0179691
1575.56	0.0187013
1585.2	0.0181431
1594.84	0.0184049
1604.48	0.0189092
1614.13	0.0193224
1623.77	0.0196455
1633.41	0.020097
1643.05	0.0202308
1652.7	0.0210939
1662.34	0.0201308
1671.98	0.0204095
1681.62	0.020245
1691.27	0.0203008
1700.91	0.0210642
1710.55	0.0206513
1720.19	0.0212613
1729.84	0.0214666
1739.48	0.0212244
1749.12	0.020864
1758.76	0.021005
1768.4	0.0210996
1778.05	0.0211931
1787.69	0.0212384
1797.33	0.0213626
1806.97	0.0214703
1816.62	0.021167
1826.26	0.0215052
1835.9	0.0210472
1845.54	0.0218864
1855.18	0.0215299
1864.83	0.0214555
1874.47	0.0206219
1884.11	0.0212102
1893.75	0.0211315
1903.4	0.021409
1913.04	0.0210129
1922.68	0.0212253
1932.32	0.0209205
1941.97	0.0209276
1951.61	0.0205198
1961.25	0.0201853
1970.89	0.018464
1980.54	0.0223476
1990.18	0.0227744
1999.82	0.0232265
2009.46	0.0218256
2019.11	0.0213716
2028.75	0.0217508
2038.39	0.0239788
2048.03	0.0243812
2057.67	0.0245454
2067.32	0.0250371
2076.96	0.0253853
2086.6	0.0261198
2096.24	0.0253539
2105.89	0.0253895
2115.53	0.0259865
2125.17	0.0240968
2134.81	0.0237912
2144.45	0.0235227
2154.1	0.0212367
2163.74	0.0289178
2173.38	0.0255476
2183.02	0.0277047
2192.67	0.0286482
2202.31	0.0274092
2211.95	0.0272768
2221.59	0.0287297
2231.24	0.0297616
2240.88	0.0298604
2250.52	0.0291065
2260.16	0.0294385
2269.8	0.029906
2279.45	0.030553
2289.09	0.0311543
2298.73	0.030602
2308.38	0.0310896
2318.02	0.032071
2327.66	0.0316076
2337.3	0.0314791
2346.94	0.0307711
2356.59	0.0318413
2366.23	0.0315009
2375.87	0.030688
2385.51	0.0305072
2395.16	0.0301495
2404.8	0.0302935
2414.44	0.0313601
2424.08	0.0313093
2433.72	0.0313975
2443.37	0.0314875
2453.01	0.0314956
2462.65	0.0308916
2472.29	0.0315608
2481.94	0.0312028
2491.58	0.0319216
2501.22	0.0315834
2510.86	0.031774
2520.51	0.0323768
2530.15	0.032644
2539.79	0.032685
2549.43	0.0331663
2559.07	0.0331874
2568.72	0.0334691
2578.36	0.033832
2588	0.0343119
2597.64	0.0338224
2607.29	0.0347065
2616.93	0.0350114
2626.57	0.0346618
2636.21	0.0348198
2645.86	0.0351468
2655.5	0.0353631
2665.14	0.0348316
2674.78	0.0348222
2684.43	0.0354896
2694.07	0.0355571
2703.71	0.0356986
2713.35	0.0353574
2722.99	0.0359114
2732.64	0.0358882
2742.28	0.036111
2751.92	0.0364691
2761.56	0.0368913
2771.21	0.0367685
2780.85	0.0365054
2790.49	0.0367779
2800.13	0.0367563
2809.78	0.0369256
2819.42	0.0372864
2829.06	0.0378139
2838.7	0.0382308
2848.34	0.0383226
2857.99	0.0387203
2867.63	0.0387117
2877.27	0.0383225
2886.91	0.038931
2896.56	0.0392096
2906.2	0.0402493
2915.84	0.0399866
2925.48	0.040519
2935.13	0.0402067
2944.77	0.0394388
2954.41	0.0398017
2964.05	0.0397982
2973.7	0.0398133
2983.34	0.0396504
2992.98	0.0393114
3002.62	0.0394071
3012.26	0.0394891
3021.91	0.0398353
3031.55	0.0399723
3041.19	0.0408052
3050.83	0.0400769
3060.48	0.0408405
3070.12	0.0412353
3079.76	0.0409972
3089.4	0.0413129
3099.05	0.0413881
3108.69	0.0412013
3118.33	0.0424344
3127.97	0.041662
3137.61	0.042679
3147.26	0.0425113
3156.9	0.0423241
3166.54	0.0431842
3176.18	0.0425729
3185.83	0.0437338
3195.47	0.0435566
3205.11	0.0444662
3214.75	0.0434045
3224.4	0.0435421
3234.04	0.0441911
3243.68	0.0441139
3253.32	0.0440388
3262.97	0.0447957
3272.61	0.0443869
3282.25	0.0444837
3291.89	0.0453447
3301.53	0.044305
3311.18	0.0447511
3320.82	0.044535
3330.46	0.0453607
3340.1	0.0450564
3349.75	0.0450015
3359.39	0.0451102
3369.03	0.0455384
3378.67	0.0453236
3388.32	0.0453748
3397.96	0.0443864
3407.6	0.0453444
3417.24	0.0448411
3426.89	0.0450261
3436.53	0.0447151
3446.17	0.045334
3455.81	0.0460876
3465.45	0.0450729
3475.1	0.0458971
3484.74	0.0446165
3494.38	0.045698
3504.02	0.045474
3513.67	0.0451881
3523.31	0.0455976
3532.95	0.0449188
3542.59	0.0451933
3552.24	0.0456268
3561.88	0.0446446
3571.52	0.0454756
3581.16	0.0449749
3590.8	0.0441456
3600.45	0.0437401
3610.09	0.0446516
3619.73	0.0437415
3629.37	0.0451896
3639.02	0.0432403
3648.66	0.045082
3658.3	0.0447193
3667.94	0.0438388
3677.59	0.0426352
3687.23	0.0447715
3696.87	0.0438813
3706.51	0.0439968
3716.16	0.0447928
3725.8	0.0441536
3735.44	0.0463236
3745.08	0.0459717
3754.72	0.0437282
3764.37	0.0444476
3774.01	0.0437185
3783.65	0.0447466
3793.29	0.0442747
3802.94	0.0459425
3812.58	0.0453203
3822.22	0.0455476
3831.86	0.0452768
3841.51	0.0457058
3851.15	0.0460045
3860.79	0.04513
3870.43	0.0452027
3880.07	0.0463281
3889.72	0.0459027
3899.36	0.0459801
3909	0.0461713
3918.64	0.0455614
3928.29	0.0456216
3937.93	0.0455389
3947.57	0.0455346
3957.21	0.0455312
3966.86	0.0460686
3976.5	0.0458455
3986.14	0.0448988
3995.78	0.0464611
