Measurement: Infrared, Infrared Data Processed
Mineral: Ferberite
Rruff sample: R050090
Ideal chemistry: Fe^2+^W^6+^O_4_
Locality: Yaogangxian mine, Cheng Zhu City, South Hunan, China
Source: Rock Currier
Description: Dark gray tabular crystal
Measured chemistry: (Fe^2+^_0.56_Mn_0.44_)W_1.00_O_4_
x	intensity
399.193	0
408.835	0.298478
418.477	0.298476
428.12	0.283663
437.762	0.32411
447.404	0.358263
457.047	0.368202
466.689	0.360024
476.331	0.367706
485.974	0.389444
495.616	0.40397
505.258	0.398593
514.901	0.383076
524.543	0.360004
534.185	0.348382
543.828	0.351963
553.47	0.366295
563.112	0.386766
572.755	0.404067
582.397	0.413484
592.039	0.412779
601.682	0.405098
611.324	0.395284
620.966	0.381844
630.609	0.367822
640.251	0.351324
649.893	0.335811
659.536	0.320082
669.178	0.303534
678.82	0.286497
688.463	0.271309
698.105	0.255947
707.747	0.237532
717.39	0.216819
727.032	0.194349
736.674	0.173451
746.317	0.164929
755.959	0.178001
765.601	0.204847
775.244	0.233181
784.886	0.257224
794.528	0.272628
804.171	0.277216
813.813	0.271184
823.455	0.255632
833.098	0.235134
842.74	0.213663
852.382	0.195456
862.025	0.175266
871.667	0.14369
881.309	0.100693
890.952	0.0567859
900.594	0.0332373
910.236	0.027809
919.879	0.0255232
929.521	0.0253231
939.163	0.0239829
948.806	0.022731
958.448	0.0215957
968.09	0.0202213
977.733	0.0197895
987.375	0.01948
997.017	0.0194053
1006.66	0.0198585
1016.3	0.0202908
1025.94	0.0208993
1035.59	0.0213045
1045.23	0.0219317
1054.87	0.0226809
1064.51	0.0232656
1074.16	0.0241102
1083.8	0.0247538
1093.44	0.0257594
1103.08	0.0269495
1112.72	0.0285164
1122.37	0.0296895
1132.01	0.0312447
1141.65	0.0327396
1151.3	0.0339635
1160.94	0.0353793
1170.58	0.0362128
1180.22	0.036987
1189.86	0.0382101
1199.51	0.0391007
1209.15	0.0403446
1218.79	0.0415696
1228.43	0.0432113
1238.08	0.0446411
1247.72	0.0464429
1257.36	0.0481328
1267	0.0502715
1276.64	0.0526027
1286.29	0.0543818
1295.93	0.0562063
1305.57	0.0581089
1315.21	0.0594949
1324.86	0.0613079
1334.5	0.0631976
1344.14	0.0647814
1353.78	0.0662904
1363.43	0.0676977
1373.07	0.0693248
1382.71	0.0709898
1392.35	0.0726993
1401.99	0.0744873
1411.64	0.076587
1421.28	0.0778722
1430.92	0.0794463
1440.57	0.0810583
1450.21	0.0820148
1459.85	0.0833532
1469.49	0.0844867
1479.13	0.0858044
1488.78	0.0871917
1498.42	0.0890967
1508.06	0.090599
1517.7	0.0932831
1527.35	0.0958788
1536.99	0.0978648
1546.63	0.100286
1556.27	0.102347
1565.91	0.104619
1575.56	0.106409
1585.2	0.108643
1594.84	0.110801
1604.48	0.112704
1614.13	0.114463
1623.77	0.116771
1633.41	0.118242
1643.05	0.119725
1652.7	0.119082
1662.34	0.11962
1671.98	0.119827
1681.62	0.120545
1691.27	0.121555
1700.91	0.121819
1710.55	0.12373
1720.19	0.124873
1729.84	0.126538
1739.48	0.126623
1749.12	0.127181
1758.76	0.128454
1768.4	0.129266
1778.05	0.130514
1787.69	0.131543
1797.33	0.133013
1806.97	0.134482
1816.62	0.13552
1826.26	0.137019
1835.9	0.139701
1845.54	0.141247
1855.18	0.14224
1864.83	0.143969
1874.47	0.145829
1884.11	0.147557
1893.75	0.148285
1903.4	0.150349
1913.04	0.151755
1922.68	0.154024
1932.32	0.155373
1941.97	0.157307
1951.61	0.158628
1961.25	0.159181
1970.89	0.161228
1980.54	0.166546
1990.18	0.16627
1999.82	0.166293
2009.46	0.166166
2019.11	0.171249
2028.75	0.170612
2038.39	0.169768
2048.03	0.170873
2057.67	0.1722
2067.32	0.174022
2076.96	0.176056
2086.6	0.176757
2096.24	0.179657
2105.89	0.179857
2115.53	0.181232
2125.17	0.180228
2134.81	0.179454
2144.45	0.182548
2154.1	0.1815
2163.74	0.189426
2173.38	0.188571
2183.02	0.192606
2192.67	0.19014
2202.31	0.192941
2211.95	0.193335
2221.59	0.193444
2231.24	0.196122
2240.88	0.195342
2250.52	0.19582
2260.16	0.197123
2269.8	0.198036
2279.45	0.199316
2289.09	0.200223
2298.73	0.201473
2308.38	0.201672
2318.02	0.204269
2327.66	0.204286
2337.3	0.204457
2346.94	0.204626
2356.59	0.2074
2366.23	0.209024
2375.87	0.20865
2385.51	0.208744
2395.16	0.210736
2404.8	0.212064
2414.44	0.213298
2424.08	0.214436
2433.72	0.214679
2443.37	0.21691
2453.01	0.217874
2462.65	0.218462
2472.29	0.219454
2481.94	0.220784
2491.58	0.222637
2501.22	0.22196
2510.86	0.22412
2520.51	0.225591
2530.15	0.227452
2539.79	0.22765
2549.43	0.227913
2559.07	0.228088
2568.72	0.230504
2578.36	0.230671
2588	0.232691
2597.64	0.234042
2607.29	0.234517
2616.93	0.235515
2626.57	0.237095
2636.21	0.237106
2645.86	0.238686
2655.5	0.239345
2665.14	0.239874
2674.78	0.239225
2684.43	0.241444
2694.07	0.242578
2703.71	0.242879
2713.35	0.245215
2722.99	0.245576
2732.64	0.246898
2742.28	0.248922
2751.92	0.249665
2761.56	0.251026
2771.21	0.251911
2780.85	0.253474
2790.49	0.254184
2800.13	0.255566
2809.78	0.257087
2819.42	0.25753
2829.06	0.258933
2838.7	0.260929
2848.34	0.261644
2857.99	0.262125
2867.63	0.263786
2877.27	0.264644
2886.91	0.265904
2896.56	0.266887
2906.2	0.268802
2915.84	0.270146
2925.48	0.26984
2935.13	0.269313
2944.77	0.26991
2954.41	0.271881
2964.05	0.272747
2973.7	0.274036
2983.34	0.274476
2992.98	0.275863
3002.62	0.276824
3012.26	0.278332
3021.91	0.280383
3031.55	0.280473
3041.19	0.28302
3050.83	0.283291
3060.48	0.283847
3070.12	0.286035
3079.76	0.287967
3089.4	0.287891
3099.05	0.290195
3108.69	0.292506
3118.33	0.292203
3127.97	0.294845
3137.61	0.296735
3147.26	0.295757
3156.9	0.297395
3166.54	0.299021
3176.18	0.300225
3185.83	0.300998
3195.47	0.301336
3205.11	0.303493
3214.75	0.304182
3224.4	0.305453
3234.04	0.306731
3243.68	0.306938
3253.32	0.308505
3262.97	0.309041
3272.61	0.310856
3282.25	0.311367
3291.89	0.314611
3301.53	0.312665
3311.18	0.314484
3320.82	0.315463
3330.46	0.314895
3340.1	0.315399
3349.75	0.316806
3359.39	0.318878
3369.03	0.318267
3378.67	0.31943
3388.32	0.318735
3397.96	0.320268
3407.6	0.320913
3417.24	0.320495
3426.89	0.321753
3436.53	0.321585
3446.17	0.322131
3455.81	0.322968
3465.45	0.322645
3475.1	0.322877
3484.74	0.323182
3494.38	0.32208
3504.02	0.321272
3513.67	0.321095
3523.31	0.321204
3532.95	0.32023
3542.59	0.320349
3552.24	0.319373
3561.88	0.318644
3571.52	0.319827
3581.16	0.318286
3590.8	0.320294
3600.45	0.317814
3610.09	0.319493
3619.73	0.321416
3629.37	0.319639
3639.02	0.321551
3648.66	0.318363
3658.3	0.32164
3667.94	0.322844
3677.59	0.321111
3687.23	0.321644
3696.87	0.323295
3706.51	0.325264
3716.16	0.325888
3725.8	0.327078
3735.44	0.329546
3745.08	0.33119
3754.72	0.33003
3764.37	0.330322
3774.01	0.331375
3783.65	0.331236
3793.29	0.330996
3802.94	0.334327
3812.58	0.334539
3822.22	0.336038
3831.86	0.335493
3841.51	0.336715
3851.15	0.336711
3860.79	0.338928
3870.43	0.339818
3880.07	0.341777
3889.72	0.339535
3899.36	0.342459
3909	0.341729
3918.64	0.342691
3928.29	0.344496
3937.93	0.344905
3947.57	0.346163
3957.21	0.347327
3966.86	0.347114
3976.5	0.346309
3986.14	0.349858
3995.78	0.351884
