Measurement: Infrared, Infrared Data Processed
Mineral: Fluorite
Rruff sample: R050115
Ideal chemistry: CaF_2_
Locality: Isthak Valley Iskardu, N.A. Gilgit, Pakistan
Source: Syed Shah
Description: Colorless fragment
Measured chemistry: CaF_2_
x	intensity
50.1401	0.0157252
52.0686	0.0161484
53.9971	0.0196813
55.9255	0.02515
57.854	0.0264618
59.7825	0.0312861
61.7109	0.0237153
63.6394	0.0210944
65.5679	0.018174
67.4963	0.0182778
69.4248	0.0215769
71.3533	0.024972
73.2817	0.0233521
75.2102	0.0229857
77.1387	0.0249512
79.0671	0.0262706
80.9956	0.0255555
82.9241	0.0262194
84.8525	0.0271898
86.781	0.0279391
88.7095	0.0279785
90.6379	0.0287297
92.5664	0.0304277
94.4948	0.0319199
96.4233	0.032215
98.3518	0.032896
100.28	0.034185
102.209	0.0360131
104.137	0.0362576
106.066	0.0364599
107.994	0.0381306
109.923	0.0403964
111.851	0.0413837
113.779	0.0414465
115.708	0.0414182
117.636	0.0425831
119.565	0.0433791
121.493	0.0437796
123.422	0.0439383
125.35	0.045318
127.279	0.0459258
129.207	0.0465974
131.136	0.0471438
133.064	0.0484867
134.993	0.0500201
136.921	0.0511054
138.85	0.0516341
140.778	0.0530865
142.707	0.0535248
144.635	0.0544534
146.563	0.0552428
148.492	0.0568229
150.42	0.057276
152.349	0.0585089
154.277	0.0597759
156.206	0.0608129
158.134	0.0615589
160.063	0.0626717
161.991	0.0628472
163.92	0.0639011
165.848	0.0651252
167.777	0.0654508
169.705	0.0661384
171.633	0.0670122
173.562	0.0671632
175.49	0.0682616
177.419	0.0687032
179.347	0.069177
181.276	0.0701243
183.204	0.0715935
185.133	0.0723329
187.061	0.073096
188.99	0.0739137
190.918	0.0746527
192.847	0.0750099
194.775	0.0759897
196.704	0.0768549
198.632	0.0777164
200.56	0.0782234
202.489	0.079162
204.417	0.0794019
206.346	0.0803014
208.274	0.0815793
210.203	0.0826044
212.131	0.0833669
214.06	0.0846004
215.988	0.0855948
217.917	0.0868589
219.845	0.0881433
221.774	0.0896681
223.702	0.0904149
225.631	0.0916075
227.559	0.0929432
229.488	0.0936129
231.416	0.0942749
233.344	0.0955948
235.273	0.0963347
237.201	0.0971066
239.13	0.0979258
241.058	0.0988808
242.987	0.0997399
244.915	0.100349
246.844	0.100976
248.772	0.101503
250.701	0.101705
252.629	0.102061
254.558	0.101215
256.486	0.100112
258.414	0.0989035
260.343	0.097758
262.271	0.09741
264.2	0.0981618
266.128	0.0986663
268.057	0.0989096
269.985	0.0988137
271.914	0.0989285
273.842	0.0989202
275.771	0.0991392
277.699	0.0996378
279.628	0.0993988
281.556	0.0983545
283.485	0.0977689
285.413	0.0968551
287.341	0.095786
289.27	0.0946304
291.198	0.0934545
293.127	0.0922315
295.055	0.0912421
296.984	0.089817
298.912	0.0885333
300.841	0.0875884
302.769	0.0865292
304.698	0.0850335
306.626	0.0838677
308.555	0.082757
310.483	0.0816204
312.411	0.0805369
314.34	0.0796564
316.269	0.0786377
318.197	0.0778627
320.125	0.0775985
322.054	0.0773789
323.982	0.0770089
325.911	0.0767082
327.839	0.0765751
329.768	0.0758743
331.696	0.0752905
333.625	0.0751243
335.553	0.0748301
337.482	0.07432
339.41	0.0738854
341.339	0.0735069
343.267	0.0729948
345.195	0.0725339
347.124	0.0717988
349.052	0.0713342
350.981	0.0708035
352.909	0.0701646
354.838	0.0694272
356.766	0.0685023
358.695	0.0676363
360.623	0.0667973
362.552	0.0660418
364.48	0.0654891
366.409	0.0650138
368.337	0.0643807
370.265	0.0641582
372.194	0.0638073
374.122	0.0632271
376.051	0.062563
377.979	0.0617299
379.908	0.0609664
381.836	0.0605984
383.765	0.0601823
385.693	0.0593709
387.622	0.0586726
389.55	0.0581895
391.479	0.0577493
393.407	0.0572552
395.336	0.0565473
397.264	0.0558012
399.192	0.0549514
401.121	0.0539424
403.049	0.0531932
404.978	0.0525059
406.906	0.0519119
408.835	0.0514769
410.763	0.0510241
412.692	0.0504852
414.62	0.0501298
416.549	0.0497456
418.477	0.0491605
420.406	0.0483646
422.334	0.0477182
424.262	0.0472354
426.191	0.0465941
428.12	0.0461905
430.048	0.0455836
431.976	0.04486
433.905	0.0441645
435.833	0.043502
437.762	0.0428729
439.69	0.0420392
441.619	0.0412929
443.547	0.0407925
445.476	0.040147
447.404	0.0392069
449.333	0.0382198
451.261	0.0374234
453.19	0.0366501
455.118	0.0358184
457.046	0.0350725
458.975	0.0342523
460.903	0.0335751
462.832	0.032457
464.76	0.031429
466.689	0.0310174
468.617	0.0302553
470.546	0.0293061
472.474	0.0288055
474.403	0.028436
476.331	0.0274257
478.26	0.0264614
480.188	0.0260842
482.116	0.0259607
484.045	0.0256427
485.974	0.0250797
487.902	0.0247287
489.83	0.0243341
491.759	0.0240299
493.687	0.0242198
495.616	0.0243516
497.544	0.0241038
499.473	0.0236848
501.401	0.0234817
503.33	0.0235635
505.258	0.0233655
507.187	0.0234515
509.115	0.0234389
511.043	0.0231155
512.972	0.022869
514.9	0.02252
516.829	0.0226031
518.757	0.0229157
520.686	0.0230332
522.614	0.0229991
524.543	0.0229658
526.471	0.0228256
528.4	0.023256
530.328	0.0234079
532.257	0.0233751
534.185	0.0235623
536.114	0.0233843
538.042	0.0234189
539.971	0.0236988
541.899	0.02349
543.827	0.0234082
545.756	0.0235302
547.684	0.0238379
549.613	0.0240575
551.541	0.0242104
553.47	0.024215
555.398	0.0245033
557.327	0.0244264
559.255	0.0239206
561.184	0.0236538
563.112	0.0239581
565.041	0.0239656
566.969	0.0238195
568.898	0.0237153
570.826	0.0237449
572.755	0.0239562
574.683	0.0237894
576.611	0.0237666
578.54	0.0237351
580.468	0.0234924
582.397	0.0235618
584.325	0.0234817
586.254	0.023255
588.182	0.023
590.111	0.0227598
592.039	0.0223249
593.968	0.0222429
595.896	0.0219687
597.824	0.0214126
599.753	0.0208564
601.682	0.0203736
603.61	0.0200136
605.538	0.0198644
607.467	0.0196378
609.395	0.0194086
611.324	0.0191918
613.252	0.0191527
615.181	0.0191957
617.109	0.018646
619.038	0.0183245
620.966	0.0185426
622.894	0.0188955
624.823	0.0197896
626.751	0.0203984
628.68	0.0213617
630.608	0.0224707
632.537	0.0232252
634.465	0.0234025
636.394	0.0233327
638.322	0.0232981
640.251	0.0233112
642.179	0.0236812
644.108	0.0238807
646.036	0.0240913
647.965	0.0239462
649.893	0.0236816
651.822	0.0237328
653.75	0.0239661
655.678	0.0239238
657.607	0.0241815
659.535	0.0245944
661.464	0.0244938
663.392	0.0246364
665.321	0.0247632
667.249	0.0248812
669.178	0.024958
671.106	0.0250829
673.035	0.0249106
674.963	0.0248849
676.892	0.024861
678.82	0.0246498
680.749	0.0243999
682.677	0.0249366
684.606	0.0257353
686.534	0.0254886
688.462	0.0254392
690.391	0.0258227
692.319	0.0258807
694.248	0.0259527
696.176	0.026335
698.105	0.0263472
700.033	0.0255431
