Measurement: Infrared, Infrared Data Processed
Mineral: Fluorapatite
Rruff sample: R040098
Ideal chemistry: Ca_5_(PO_4_)_3_F
Locality: Cerro de Mercado mine, Durango, Mexico
Source: Marcus Origlieri
Description: Pale yellow short hexagonal prism
Measured chemistry: Ca_5.00_((P_0.98_Si_0.01_S_0.01_)O_4_)_3_F_1.00_
x	intensity
399.193	0
408.835	0.0140884
418.477	0.0145222
428.12	0.0133077
437.762	0.0140272
447.404	0.0143047
457.047	0.0152746
466.689	0.0231612
476.331	0.025395
485.974	0.0198477
495.616	0.0206985
505.258	0.0254311
514.901	0.0347094
524.543	0.044675
534.185	0.0619452
543.828	0.106734
553.47	0.19816
563.112	0.281969
572.755	0.267944
582.397	0.136432
592.039	0.138519
601.682	0.203885
611.324	0.0782515
620.966	0.0262825
630.609	0.0146466
640.251	0.0100973
649.893	0.0117999
659.536	0.00962029
669.178	0.00896785
678.82	0.00891778
688.463	0.00890209
698.105	0.00978707
707.747	0.0103348
717.39	0.0114607
727.032	0.0124753
736.674	0.0139981
746.317	0.0155801
755.959	0.0155708
765.601	0.0150475
775.244	0.0151249
784.886	0.0160767
794.528	0.0172919
804.171	0.0191986
813.813	0.0209076
823.455	0.0234757
833.098	0.0265504
842.74	0.0301989
852.382	0.0364126
862.025	0.0432856
871.667	0.0544536
881.309	0.0564949
890.952	0.0598303
900.594	0.0652979
910.236	0.0754815
919.879	0.0921391
929.521	0.114607
939.163	0.140054
948.806	0.172872
958.448	0.236924
968.09	0.219318
977.733	0.267983
987.375	0.334167
997.017	0.408476
1006.66	0.471201
1016.3	0.529891
1025.94	0.550132
1035.59	0.498187
1045.23	0.39358
1054.87	0.306758
1064.51	0.237592
1074.16	0.178156
1083.8	0.143509
1093.44	0.176133
1103.08	0.1094
1112.72	0.0672773
1122.37	0.0369798
1132.01	0.0219313
1141.65	0.0162223
1151.3	0.015118
1160.94	0.0119862
1170.58	0.0105105
1180.22	0.0106877
1189.86	0.00776556
1199.51	0.00633767
1209.15	0.00563799
1218.79	0.0047461
1228.43	0.00423646
1238.08	0.00412016
1247.72	0.00404679
1257.36	0.00359037
1267	0.00374671
1276.64	0.00315555
1286.29	0.00336715
1295.93	0.00319157
1305.57	0.00310121
1315.21	0.00341506
1324.86	0.00334572
1334.5	0.00349435
1344.14	0.00346782
1353.78	0.00367403
1363.43	0.00412387
1373.07	0.00385233
1382.71	0.00413125
1392.35	0.00463137
1401.99	0.00475591
1411.64	0.00541967
1421.28	0.00553878
1430.92	0.00595456
1440.57	0.00562846
1450.21	0.00595372
1459.85	0.00614596
1469.49	0.00639238
1479.13	0.0060943
1488.78	0.00559315
1498.42	0.00573853
1508.06	0.00606501
1517.7	0.00579138
1527.35	0.00629763
1536.99	0.00666994
1546.63	0.00754536
1556.27	0.00794549
1565.91	0.00835068
1575.56	0.00829258
1585.2	0.00857692
1594.84	0.00828455
1604.48	0.00821994
1614.13	0.0078981
1623.77	0.0078309
1633.41	0.00756846
1643.05	0.00778901
1652.7	0.00733422
1662.34	0.00739104
1671.98	0.00742056
1681.62	0.00686813
1691.27	0.00732345
1700.91	0.00711046
1710.55	0.00685369
1720.19	0.00699496
1729.84	0.00723899
1739.48	0.00669434
1749.12	0.00736611
1758.76	0.00698716
1768.4	0.00691781
1778.05	0.00695838
1787.69	0.00677867
1797.33	0.00741908
1806.97	0.0070603
1816.62	0.00651517
1826.26	0.0072891
1835.9	0.00726074
1845.54	0.00691943
1855.18	0.00690208
1864.83	0.00728574
1874.47	0.00720745
1884.11	0.00660734
1893.75	0.00675201
1903.4	0.00606317
1913.04	0.00601086
1922.68	0.0055387
1932.32	0.00510086
1941.97	0.00480387
1951.61	0.00439445
1961.25	-0.000436959
1970.89	0.00180795
1980.54	0.00432745
1990.18	0.00444561
1999.82	0.00276394
2009.46	0.00233117
2019.11	-9.30887e-05
2028.75	-0.001386
2038.39	0.00113797
2048.03	0.00441363
2057.67	0.00588722
2067.32	0.00496369
2076.96	0.00524904
2086.6	0.00692349
2096.24	0.00529679
2105.89	0.00712065
2115.53	0.00646427
2125.17	0.00515859
2134.81	0.00586706
2144.45	0.00324663
2154.1	0.000902734
2163.74	0.00487189
2173.38	0.00487727
2183.02	0.0054471
2192.67	0.00560243
2202.31	0.00745976
2211.95	0.0094388
2221.59	0.00898215
2231.24	0.0101282
2240.88	0.0114556
2250.52	0.0113624
2260.16	0.0113658
2269.8	0.0135723
2279.45	0.0138582
2289.09	0.0135904
2298.73	0.0140518
2308.38	0.0137281
2318.02	0.0141
2327.66	0.0137215
2337.3	0.0134593
2346.94	0.0128206
2356.59	0.0135479
2366.23	0.0129867
2375.87	0.0132228
2385.51	0.0120879
2395.16	0.0135517
2404.8	0.0118779
2414.44	0.0133668
2424.08	0.013465
2433.72	0.0136919
2443.37	0.014048
2453.01	0.0144496
2462.65	0.014577
2472.29	0.0134938
2481.94	0.0151046
2491.58	0.0132686
2501.22	0.0141224
2510.86	0.0147702
2520.51	0.0146045
2530.15	0.0154524
2539.79	0.0151437
2549.43	0.0144888
2559.07	0.0150852
2568.72	0.0154928
2578.36	0.0153588
2588	0.0166482
2597.64	0.01559
2607.29	0.0153639
2616.93	0.0155173
2626.57	0.0152671
2636.21	0.01679
2645.86	0.0168107
2655.5	0.0155626
2665.14	0.015214
2674.78	0.0150307
2684.43	0.0153706
2694.07	0.0151795
2703.71	0.0161245
2713.35	0.0151353
2722.99	0.0148024
2732.64	0.0154906
2742.28	0.0158963
2751.92	0.0160757
2761.56	0.01644
2771.21	0.0163968
2780.85	0.0161397
2790.49	0.0170003
2800.13	0.0161907
2809.78	0.0173875
2819.42	0.0171179
2829.06	0.0166319
2838.7	0.0181327
2848.34	0.0177393
2857.99	0.0178928
2867.63	0.0167113
2877.27	0.0184585
2886.91	0.0171843
2896.56	0.0183506
2906.2	0.0178754
2915.84	0.0190777
2925.48	0.0187168
2935.13	0.0188922
2944.77	0.0172355
2954.41	0.0180607
2964.05	0.0184347
2973.7	0.0185069
2983.34	0.0173906
2992.98	0.0188206
3002.62	0.0181455
3012.26	0.017964
3021.91	0.01852
3031.55	0.019015
3041.19	0.0192276
3050.83	0.0177353
3060.48	0.0185884
3070.12	0.0189481
3079.76	0.0184257
3089.4	0.0194379
3099.05	0.0201851
3108.69	0.0202047
3118.33	0.0193737
3127.97	0.0203653
3137.61	0.0200747
3147.26	0.0208318
3156.9	0.0203388
3166.54	0.0206008
3176.18	0.0203298
3185.83	0.0199641
3195.47	0.0204021
3205.11	0.0200377
3214.75	0.0205994
3224.4	0.021236
3234.04	0.0210852
3243.68	0.0207014
3253.32	0.021166
3262.97	0.0215817
3272.61	0.0218506
3282.25	0.0215332
3291.89	0.0226862
3301.53	0.021457
3311.18	0.0216391
3320.82	0.023072
3330.46	0.0223975
3340.1	0.019756
3349.75	0.0212213
3359.39	0.0211164
3369.03	0.0216768
3378.67	0.0235089
3388.32	0.0211901
3397.96	0.0228049
3407.6	0.0225645
3417.24	0.0208939
3426.89	0.0224571
3436.53	0.0213278
3446.17	0.0217037
3455.81	0.0213278
3465.45	0.0213498
3475.1	0.0208821
3484.74	0.0222391
3494.38	0.0216131
3504.02	0.0220563
3513.67	0.0238821
3523.31	0.0221615
3532.95	0.0233559
3542.59	0.0224002
3552.24	0.0227524
3561.88	0.0216963
3571.52	0.0205702
3581.16	0.0218511
3590.8	0.0206957
3600.45	0.0209955
3610.09	0.0223898
3619.73	0.0221858
3629.37	0.0228752
3639.02	0.0212681
3648.66	0.0229518
3658.3	0.0227767
3667.94	0.0213517
3677.59	0.02004
3687.23	0.0230616
3696.87	0.0215539
3706.51	0.0219953
3716.16	0.0202392
3725.8	0.0200401
3735.44	0.0212668
3745.08	0.0231147
3754.72	0.0223885
3764.37	0.0236391
3774.01	0.0212895
3783.65	0.025764
3793.29	0.0220586
3802.94	0.0213774
3812.58	0.0250409
3822.22	0.0234217
3831.86	0.0225391
3841.51	0.0240283
3851.15	0.0242709
3860.79	0.0225759
3870.43	0.0236482
3880.07	0.0253674
3889.72	0.0242873
3899.36	0.0220025
3909	0.0255985
3918.64	0.0216562
3928.29	0.0218401
3937.93	0.0223674
3947.57	0.0232725
3957.21	0.0258572
3966.86	0.0230569
3976.5	0.0228139
3986.14	0.0235241
3995.78	0.0271877
