Measurement: Infrared, Infrared Data Processed
Mineral: Fluorapophyllite-(K)
Rruff sample: R050021
Ideal chemistry: KCa_4_Si_8_O_20_F8H_2_O
Locality: Poona, Maharashtra State, India
Source: Eugene Schlepp
Description: Colorless tetragonal prisms
Measured chemistry: (K_0.98_Na_0.02_)_Σ=1_Ca_4.00_Si_8.00_O_20_(F_0.84_(OH)_0.16_)_Σ=1_·8H_2_O
x	intensity
399.193	0
408.835	0.097097
418.477	0.0958983
428.12	0.0711504
437.762	0.100663
447.404	0.115462
457.047	0.135837
466.689	0.176086
476.331	0.181964
485.974	0.156417
495.616	0.191472
505.258	0.162552
514.901	0.117671
524.543	0.119302
534.185	0.133995
543.828	0.110868
553.47	0.0750814
563.112	0.0439979
572.755	0.0378083
582.397	0.0452783
592.039	0.0710818
601.682	0.0807077
611.324	0.0535966
620.966	0.0439813
630.609	0.0411574
640.251	0.0314461
649.893	0.0259879
659.536	0.0258724
669.178	0.024579
678.82	0.0222348
688.463	0.0224532
698.105	0.0237031
707.747	0.024644
717.39	0.0271422
727.032	0.0305534
736.674	0.0365699
746.317	0.0491303
755.959	0.0797595
765.601	0.10707
775.244	0.0843089
784.886	0.0866831
794.528	0.0817367
804.171	0.0620546
813.813	0.0476223
823.455	0.0421762
833.098	0.0401118
842.74	0.0396525
852.382	0.0402577
862.025	0.0413377
871.667	0.0424589
881.309	0.0450545
890.952	0.0485366
900.594	0.0524581
910.236	0.0576693
919.879	0.0664052
929.521	0.0792646
939.163	0.0986202
948.806	0.12616
958.448	0.164996
968.09	0.215732
977.733	0.276037
987.375	0.333405
997.017	0.370594
1006.66	0.360778
1016.3	0.314042
1025.94	0.236752
1035.59	0.174064
1045.23	0.128624
1054.87	0.0924142
1064.51	0.0593064
1074.16	0.0479426
1083.8	0.0627387
1093.44	0.0963616
1103.08	0.08054
1112.72	0.0719974
1122.37	0.0920435
1132.01	0.0661164
1141.65	0.0395015
1151.3	0.0261011
1160.94	0.0212912
1170.58	0.0185995
1180.22	0.0166236
1189.86	0.0149211
1199.51	0.0133011
1209.15	0.0123246
1218.79	0.0111001
1228.43	0.010479
1238.08	0.0100268
1247.72	0.00962832
1257.36	0.00947306
1267	0.00898643
1276.64	0.00918629
1286.29	0.00902048
1295.93	0.00884594
1305.57	0.00856343
1315.21	0.00894836
1324.86	0.00905079
1334.5	0.0092021
1344.14	0.00922901
1353.78	0.00942028
1363.43	0.0101395
1373.07	0.0100512
1382.71	0.0113448
1392.35	0.01198
1401.99	0.0133178
1411.64	0.0148287
1421.28	0.0158681
1430.92	0.0167442
1440.57	0.0169175
1450.21	0.0171398
1459.85	0.0172381
1469.49	0.0167001
1479.13	0.0171225
1488.78	0.0168159
1498.42	0.0168838
1508.06	0.0182332
1517.7	0.018226
1527.35	0.0181878
1536.99	0.0172405
1546.63	0.01938
1556.27	0.0168492
1565.91	0.0193298
1575.56	0.0167283
1585.2	0.0197387
1594.84	0.020217
1604.48	0.0208468
1614.13	0.0212729
1623.77	0.0231545
1633.41	0.023946
1643.05	0.0272505
1652.7	0.0267326
1662.34	0.0350258
1671.98	0.0436416
1681.62	0.0475771
1691.27	0.0470914
1700.91	0.032188
1710.55	0.0164275
1720.19	0.0119737
1729.84	0.0097826
1739.48	0.00828748
1749.12	0.00855625
1758.76	0.00924472
1768.4	0.0096941
1778.05	0.00938199
1787.69	0.00937384
1797.33	0.00916277
1806.97	0.00945451
1816.62	0.00943231
1826.26	0.00952513
1835.9	0.00946941
1845.54	0.00957143
1855.18	0.00940475
1864.83	0.00974786
1874.47	0.00935804
1884.11	0.00961591
1893.75	0.00873023
1903.4	0.00895183
1913.04	0.00712907
1922.68	0.00791549
1932.32	0.00570846
1941.97	0.00584192
1951.61	0.00464938
1961.25	0.00475781
1970.89	0.00297103
1980.54	0.00690584
1990.18	0.00361035
1999.82	0.0011573
2009.46	0.00141957
2019.11	0.00236638
2028.75	0.00241741
2038.39	0.00208693
2048.03	0.0040774
2057.67	0.00543992
2067.32	0.00856254
2076.96	0.00822149
2086.6	0.00783671
2096.24	0.00856835
2105.89	0.00953535
2115.53	0.0108066
2125.17	0.00968173
2134.81	0.0102507
2144.45	0.0112651
2154.1	0.0093633
2163.74	0.0119372
2173.38	0.0134622
2183.02	0.0104213
2192.67	0.0126695
2202.31	0.0131495
2211.95	0.0106647
2221.59	0.0132555
2231.24	0.0151736
2240.88	0.0118671
2250.52	0.0133555
2260.16	0.0160339
2269.8	0.015393
2279.45	0.0180855
2289.09	0.0177992
2298.73	0.0160487
2308.38	0.0174241
2318.02	0.0183557
2327.66	0.0182185
2337.3	0.0171313
2346.94	0.0167586
2356.59	0.0164074
2366.23	0.0157711
2375.87	0.0151441
2385.51	0.0157836
2395.16	0.0165377
2404.8	0.016684
2414.44	0.0156081
2424.08	0.015613
2433.72	0.0166283
2443.37	0.0171487
2453.01	0.0165536
2462.65	0.0172979
2472.29	0.0172436
2481.94	0.017356
2491.58	0.017364
2501.22	0.017446
2510.86	0.0184305
2520.51	0.0175958
2530.15	0.0176929
2539.79	0.0190064
2549.43	0.0191615
2559.07	0.0187995
2568.72	0.0193292
2578.36	0.0206616
2588	0.0211045
2597.64	0.0214894
2607.29	0.0215626
2616.93	0.0219039
2626.57	0.0236212
2636.21	0.0236684
2645.86	0.0238217
2655.5	0.023289
2665.14	0.0248256
2674.78	0.0237985
2684.43	0.0254709
2694.07	0.0257026
2703.71	0.0271819
2713.35	0.027351
2722.99	0.0280945
2732.64	0.02885
2742.28	0.0295676
2751.92	0.0310579
2761.56	0.0318936
2771.21	0.0325537
2780.85	0.0343772
2790.49	0.0350587
2800.13	0.0367432
2809.78	0.0369592
2819.42	0.0394644
2829.06	0.0389892
2838.7	0.0413249
2848.34	0.0429377
2857.99	0.0439662
2867.63	0.045355
2877.27	0.0486547
2886.91	0.0493045
2896.56	0.0528727
2906.2	0.0538262
2915.84	0.054384
2925.48	0.0567152
2935.13	0.0577282
2944.77	0.0593057
2954.41	0.0614478
2964.05	0.0653268
2973.7	0.067752
2983.34	0.0708714
2992.98	0.0744635
3002.62	0.0766366
3012.26	0.0785894
3021.91	0.0766159
3031.55	0.0781126
3041.19	0.0764807
3050.83	0.0771165
3060.48	0.0752448
3070.12	0.0742707
3079.76	0.0734624
3089.4	0.0717264
3099.05	0.0697532
3108.69	0.0701835
3118.33	0.0680823
3127.97	0.0689116
3137.61	0.0681452
3147.26	0.0671792
3156.9	0.0660055
3166.54	0.0634658
3176.18	0.0597826
3185.83	0.0601322
3195.47	0.0570852
3205.11	0.0558153
3214.75	0.053025
3224.4	0.0503048
3234.04	0.0513166
3243.68	0.0484973
3253.32	0.0494335
3262.97	0.0464794
3272.61	0.0426948
3282.25	0.0414445
3291.89	0.0442455
3301.53	0.0393803
3311.18	0.042115
3320.82	0.0410501
3330.46	0.0389745
3340.1	0.0390012
3349.75	0.0381932
3359.39	0.0391945
3369.03	0.0398393
3378.67	0.0380482
3388.32	0.0393246
3397.96	0.0365519
3407.6	0.0385906
3417.24	0.0370382
3426.89	0.0368443
3436.53	0.0379804
3446.17	0.0355377
3455.81	0.0369605
3465.45	0.0348813
3475.1	0.0345785
3484.74	0.0382083
3494.38	0.0412443
3504.02	0.0387337
3513.67	0.0442671
3523.31	0.0547535
3532.95	0.0734726
3542.59	0.113338
3552.24	0.174118
3561.88	0.111209
3571.52	0.0346563
3581.16	0.0220568
3590.8	0.0208448
3600.45	0.0248732
3610.09	0.0212584
3619.73	0.0198119
3629.37	0.0190522
3639.02	0.0234581
3648.66	0.0129543
3658.3	0.0213767
3667.94	0.015964
3677.59	0.0202207
3687.23	0.0144434
3696.87	0.0201228
3706.51	0.0189521
3716.16	0.0203934
3725.8	0.016952
3735.44	0.0165343
3745.08	0.0201268
3754.72	0.0195417
3764.37	0.0215132
3774.01	0.0235207
3783.65	0.0219923
3793.29	0.0251279
3802.94	0.0237322
3812.58	0.0242516
3822.22	0.0217959
3831.86	0.0201008
3841.51	0.0201862
3851.15	0.0185012
3860.79	0.0221486
3870.43	0.0201947
3880.07	0.0274596
3889.72	0.0249842
3899.36	0.0232203
3909	0.0228393
3918.64	0.0254927
3928.29	0.0233443
3937.93	0.029006
3947.57	0.0256258
3957.21	0.0264011
3966.86	0.0230071
3976.5	0.02763
3986.14	0.0291292
3995.78	0.026934
