Measurement: Infrared, Infrared Data Processed
Mineral: Fluorapatite
Rruff sample: R050122
Ideal chemistry: Ca_5_(PO_4_)_3_F
Locality: Cruziero mine, San Jose, Minas Gerais, Brazil
Source: Carlos and Paulo Vasconcelos
Description: Green fragment
Measured chemistry: (Ca_4.99_Mn_0.01_)_Î£=5_(P_1.00_O_4_)_3_F_1.00_; trace amounts of Fe
x	intensity
50.1401	0.0289084
52.0686	0.0167713
53.9971	0.0136164
55.9255	0.0228827
57.854	0.0263961
59.7825	0.0256616
61.7109	0.0195803
63.6394	0.024915
65.5679	0.0266033
67.4963	0.0276129
69.4248	0.0260888
71.3533	0.0275475
73.2817	0.0275062
75.2102	0.0297917
77.1387	0.0328943
79.0671	0.0354573
80.9956	0.0356901
82.9241	0.0376112
84.8525	0.0386318
86.781	0.0389542
88.7095	0.0384296
90.6379	0.0391609
92.5664	0.0412937
94.4948	0.0428231
96.4233	0.0423345
98.3518	0.0429216
100.28	0.0417679
102.209	0.0398564
104.137	0.0379364
106.066	0.0351639
107.994	0.032432
109.923	0.031672
111.851	0.0322185
113.779	0.0345716
115.708	0.0361383
117.636	0.0373028
119.565	0.038992
121.493	0.0412538
123.422	0.042435
125.35	0.0442235
127.279	0.0450415
129.207	0.0465711
131.136	0.0479823
133.064	0.0498891
134.993	0.0517878
136.921	0.0531778
138.85	0.0535851
140.778	0.0546138
142.707	0.055839
144.635	0.0574414
146.563	0.0583145
148.492	0.0599854
150.42	0.0608985
152.349	0.0626938
154.277	0.0641329
156.206	0.0657922
158.134	0.0672916
160.063	0.0683237
161.991	0.0692812
163.92	0.0702418
165.848	0.0708778
167.777	0.0723887
169.705	0.073315
171.633	0.073996
173.562	0.0749455
175.49	0.0763869
177.419	0.0774665
179.347	0.0780683
181.276	0.0777165
183.204	0.0781975
185.133	0.078603
187.061	0.0792002
188.99	0.0783591
190.918	0.0772927
192.847	0.0760579
194.775	0.0739324
196.704	0.070791
198.632	0.0672683
200.56	0.0653034
202.489	0.0666772
204.417	0.0695361
206.346	0.0734876
208.274	0.0772704
210.203	0.0799749
212.131	0.0822699
214.06	0.0844889
215.988	0.0859012
217.917	0.0870494
219.845	0.0874394
221.774	0.087496
223.702	0.0866841
225.631	0.0858162
227.559	0.0846341
229.488	0.0827033
231.416	0.0804483
233.344	0.0784813
235.273	0.0770503
237.201	0.076265
239.13	0.0754669
241.058	0.0745498
242.987	0.0725611
244.915	0.0702087
246.844	0.0675421
248.772	0.0652451
250.701	0.0636652
252.629	0.0643597
254.558	0.067148
256.486	0.0708886
258.414	0.0752671
260.343	0.0798919
262.271	0.0834148
264.2	0.0861537
266.128	0.0880871
268.057	0.088555
269.985	0.0877009
271.914	0.0865507
273.842	0.0843657
275.771	0.0824268
277.699	0.0807664
279.628	0.0787041
281.556	0.0767832
283.485	0.0755326
285.413	0.0744683
287.341	0.0741287
289.27	0.0746368
291.198	0.0750061
293.127	0.0751563
295.055	0.0754102
296.984	0.0754389
298.912	0.0753265
300.841	0.0751915
302.769	0.0752127
304.698	0.0744043
306.626	0.0735613
308.555	0.0729304
310.483	0.0719013
312.411	0.0707897
314.34	0.0701376
316.269	0.0692566
318.197	0.0680152
320.125	0.0665289
322.054	0.065129
323.982	0.0633533
325.911	0.0620503
327.839	0.0609251
329.768	0.0594271
331.696	0.0580068
333.625	0.0568018
335.553	0.0555508
337.482	0.0546613
339.41	0.0541871
341.339	0.0536097
343.267	0.0537138
345.195	0.0549237
347.124	0.0563241
349.052	0.0577708
350.981	0.0591005
352.909	0.0595216
354.838	0.0589317
356.766	0.0571439
358.695	0.0546322
360.623	0.0518699
362.552	0.0491195
364.48	0.0466173
366.409	0.0443118
368.337	0.041949
370.265	0.039845
372.194	0.0378556
374.122	0.0359348
376.051	0.0337195
377.979	0.0314433
379.908	0.0291024
381.836	0.0270757
383.765	0.0253785
385.693	0.0238364
387.622	0.0226235
389.55	0.021666
391.479	0.0212032
393.407	0.020873
395.336	0.0203962
397.264	0.0198577
399.192	0.0195952
401.121	0.0193611
403.049	0.0192052
404.978	0.0189944
406.906	0.0187493
408.835	0.0186777
410.763	0.0186049
412.692	0.0184737
414.62	0.0183669
416.549	0.0183409
418.477	0.0183317
420.406	0.0181093
422.334	0.0181817
424.262	0.018156
426.191	0.0180322
428.12	0.0180555
430.048	0.0180654
431.976	0.0180444
433.905	0.0179699
435.833	0.0178481
437.762	0.0177548
439.69	0.0176928
441.619	0.0177722
443.547	0.0179971
445.476	0.0181438
447.404	0.018433
449.333	0.01885
451.261	0.0193067
453.19	0.0199677
455.118	0.0208081
457.046	0.0217432
458.975	0.0228143
460.903	0.023863
462.832	0.0249259
464.76	0.0255621
466.689	0.0264262
468.617	0.0276376
470.546	0.0284796
472.474	0.0289717
474.403	0.0285665
476.331	0.0274833
478.26	0.026124
480.188	0.0250797
482.116	0.0245562
484.045	0.024249
485.974	0.023845
487.902	0.023465
489.83	0.0232729
491.759	0.0234425
493.687	0.0238028
495.616	0.0242323
497.544	0.0247374
499.473	0.0254357
501.401	0.0264489
503.33	0.0275569
505.258	0.0284983
507.187	0.028962
509.115	0.0293771
511.043	0.0303311
512.972	0.0311902
514.9	0.0323132
516.829	0.0336254
518.757	0.0349603
520.686	0.0362938
522.614	0.0380616
524.543	0.0398674
526.471	0.0418048
528.4	0.0440399
530.328	0.0462028
532.257	0.0485275
534.185	0.0510557
536.114	0.0539669
538.042	0.0574865
539.971	0.0608597
541.899	0.0645712
543.827	0.0688356
545.756	0.0730329
547.684	0.0772474
549.613	0.0817477
551.541	0.0865748
553.47	0.0922533
555.398	0.0980407
557.327	0.103714
559.255	0.109357
561.184	0.11463
563.112	0.118562
565.041	0.121099
566.969	0.12261
568.898	0.123141
570.826	0.12264
572.755	0.120617
574.683	0.115994
576.611	0.107341
578.54	0.0956439
580.468	0.0849607
582.397	0.0776376
584.325	0.0731902
586.254	0.0710219
588.182	0.0706992
590.111	0.0722633
592.039	0.0765084
593.968	0.0839892
595.896	0.0936776
597.824	0.102668
599.753	0.1065
601.682	0.103674
603.61	0.0956651
605.538	0.0850226
607.467	0.0740587
609.395	0.0636451
611.324	0.0544395
613.252	0.0459239
615.181	0.0387182
617.109	0.0330906
619.038	0.0291019
620.966	0.0267089
622.894	0.0258551
624.823	0.0254001
626.751	0.0256696
628.68	0.0267634
630.608	0.0278183
632.537	0.0282227
634.465	0.0285298
636.394	0.028766
638.322	0.0287891
640.251	0.0289351
642.179	0.0291413
644.108	0.0294969
646.036	0.0300648
647.965	0.0304551
649.893	0.0304756
651.822	0.0307398
653.75	0.0309203
655.678	0.0311401
657.607	0.0314831
659.535	0.0318685
661.464	0.0318117
663.392	0.0318356
665.321	0.0324225
667.249	0.0338534
669.178	0.0344252
671.106	0.0345266
673.035	0.0349231
674.963	0.035227
676.892	0.0352715
678.82	0.0349813
680.749	0.034452
682.677	0.0336361
684.606	0.033058
686.534	0.0330916
688.462	0.0335386
690.391	0.0332895
692.319	0.0335812
694.248	0.0346958
696.176	0.0354556
698.105	0.0358686
700.033	0.0364115
