Measurement: Infrared, Infrared Data Processed
Mineral: Fluorophlogopite
Rruff sample: R040042
Ideal chemistry: KMg_3_(Si_3_Al)O_10_F_2_
Locality: Franklin, Sussex County, New Jersey, USA
Source: University of Arizona Mineral Museum
Description: Brown flattened hexagonal prism, polytype 1M
Measured chemistry: (K_0.92_Na_0.08_)_Σ=1_(Mg_2.95_Fe_0.05_)_Σ=3_(Si_3.00_Al_1.00_)O_10_(F_1.40_(OH)_0.60_)_Σ=2_; trace amounts of Ti; OH estimated by charge balance
x	intensity
399.193	0
408.835	0.106893
418.477	0.10738
428.12	0.118416
437.762	0.118981
447.404	0.1241
457.047	0.123942
466.689	0.12129
476.331	0.114599
485.974	0.0987259
495.616	0.09248
505.258	0.0858144
514.901	0.0732582
524.543	0.0622042
534.185	0.0534621
543.828	0.0468354
553.47	0.0392804
563.112	0.0284636
572.755	0.0182422
582.397	0.0150349
592.039	0.0148773
601.682	0.0157416
611.324	0.0176533
620.966	0.0204398
630.609	0.0253735
640.251	0.0300423
649.893	0.0340345
659.536	0.0387653
669.178	0.043334
678.82	0.0472737
688.463	0.0459227
698.105	0.0339296
707.747	0.0283591
717.39	0.0314503
727.032	0.0352843
736.674	0.0354239
746.317	0.0339814
755.959	0.0361618
765.601	0.0401744
775.244	0.0447661
784.886	0.0470771
794.528	0.0500166
804.171	0.051916
813.813	0.0435109
823.455	0.0306015
833.098	0.0303039
842.74	0.0391142
852.382	0.0525364
862.025	0.0683694
871.667	0.0853867
881.309	0.099493
890.952	0.109127
900.594	0.114622
910.236	0.120286
919.879	0.127547
929.521	0.13395
939.163	0.142006
948.806	0.15117
958.448	0.1586
968.09	0.161803
977.733	0.160009
987.375	0.154039
997.017	0.152166
1006.66	0.150033
1016.3	0.140263
1025.94	0.114832
1035.59	0.0851769
1045.23	0.0638058
1054.87	0.0558346
1064.51	0.0517557
1074.16	0.0486749
1083.8	0.0447617
1093.44	0.0369398
1103.08	0.026888
1112.72	0.0173058
1122.37	0.0109707
1132.01	0.00761607
1141.65	0.0057876
1151.3	0.00465045
1160.94	0.00372273
1170.58	0.00327942
1180.22	0.00304087
1189.86	0.00249673
1199.51	0.00224666
1209.15	0.00176495
1218.79	0.00141693
1228.43	0.00138546
1238.08	0.001365
1247.72	0.00152014
1257.36	0.00121017
1267	0.00127607
1276.64	0.00146159
1286.29	0.00116006
1295.93	0.0013084
1305.57	0.00130625
1315.21	0.00162918
1324.86	0.00132421
1334.5	0.00129638
1344.14	0.00166195
1353.78	0.00154607
1363.43	0.00230699
1373.07	0.00257941
1382.71	0.00320655
1392.35	0.00442336
1401.99	0.00584227
1411.64	0.0072083
1421.28	0.0081001
1430.92	0.00906294
1440.57	0.00926567
1450.21	0.00930062
1459.85	0.00846568
1469.49	0.00719727
1479.13	0.00595761
1488.78	0.00513213
1498.42	0.00438974
1508.06	0.0036952
1517.7	0.0031714
1527.35	0.00284995
1536.99	0.00278124
1546.63	0.00299522
1556.27	0.00302938
1565.91	0.00322878
1575.56	0.0031605
1585.2	0.00329145
1594.84	0.00301444
1604.48	0.00295551
1614.13	0.00317337
1623.77	0.00278745
1633.41	0.00330867
1643.05	0.00284419
1652.7	0.00256556
1662.34	0.00269453
1671.98	0.00206698
1681.62	0.00190139
1691.27	0.00154076
1700.91	0.00174615
1710.55	0.00186222
1720.19	0.00166462
1729.84	0.00111401
1739.48	0.00110691
1749.12	0.000379957
1758.76	0.000261927
1768.4	0.00014381
1778.05	3.62628e-05
1787.69	0.000118415
1797.33	0.000118419
1806.97	-0.000232241
1816.62	-0.000286149
1826.26	-0.000150657
1835.9	-3.7132e-05
1845.54	-0.00100332
1855.18	-0.000442884
1864.83	-0.00126747
1874.47	-0.00122387
1884.11	-0.00183381
1893.75	-0.00130284
1903.4	-0.00111532
1913.04	-0.00285588
1922.68	-0.00319154
1932.32	-0.00381359
1941.97	-0.00347323
1951.61	-0.00403071
1961.25	-0.00559458
1970.89	-0.00757096
1980.54	-0.00561411
1990.18	-0.00607058
1999.82	-0.00599209
2009.46	-0.00548947
2019.11	-0.00531619
2028.75	-0.00484941
2038.39	-0.00537514
2048.03	-0.0021866
2057.67	-0.00130317
2067.32	-0.00200815
2076.96	-0.00137328
2086.6	-0.00201914
2096.24	-0.00156389
2105.89	9.65949e-05
2115.53	-0.00127634
2125.17	-0.00133283
2134.81	-0.0024181
2144.45	-0.00166791
2154.1	-0.00520395
2163.74	-0.00164691
2173.38	-0.000990662
2183.02	-0.00145603
2192.67	-0.000509074
2202.31	0.00153919
2211.95	-0.001573
2221.59	0.003269
2231.24	0.000787298
2240.88	0.00108311
2250.52	0.000976571
2260.16	0.00204113
2269.8	0.000982556
2279.45	0.00166301
2289.09	0.00105441
2298.73	0.00169594
2308.38	0.00200365
2318.02	0.00253014
2327.66	0.000997115
2337.3	0.00121451
2346.94	0.00139741
2356.59	0.000802082
2366.23	0.00054724
2375.87	0.000327117
2385.51	0.000581118
2395.16	0.00050156
2404.8	0.00172153
2414.44	0.00140357
2424.08	0.000884767
2433.72	0.000836882
2443.37	0.00119928
2453.01	0.00243998
2462.65	0.00135936
2472.29	0.000581358
2481.94	0.000554681
2491.58	0.0016715
2501.22	0.0013742
2510.86	0.000559771
2520.51	-0.000115348
2530.15	0.000921987
2539.79	0.000943254
2549.43	0.000727075
2559.07	0.00109154
2568.72	0.0006866
2578.36	0.000803256
2588	0.000460413
2597.64	0.000674666
2607.29	0.00211782
2616.93	0.00154834
2626.57	0.00108768
2636.21	0.000993527
2645.86	0.00136651
2655.5	0.001109
2665.14	0.00115525
2674.78	0.000131296
2684.43	-0.000252016
2694.07	4.56076e-05
2703.71	0.000602214
2713.35	-0.000637648
2722.99	0.000194931
2732.64	-0.000224849
2742.28	0.000427613
2751.92	0.000383111
2761.56	0.000894773
2771.21	0.000856261
2780.85	0.000994392
2790.49	-0.000105742
2800.13	0.000399075
2809.78	-0.00060674
2819.42	0.000496084
2829.06	0.00067433
2838.7	-0.000395329
2848.34	0.00130943
2857.99	0.000520313
2867.63	0.000605993
2877.27	-0.000203099
2886.91	0.000315393
2896.56	0.000345345
2906.2	0.00154484
2915.84	0.00161986
2925.48	0.00174557
2935.13	0.00141982
2944.77	0.000520453
2954.41	0.000420238
2964.05	0.00057986
2973.7	0.000353957
2983.34	0.000569137
2992.98	0.000218061
3002.62	-0.000115478
3012.26	0.000422407
3021.91	0.00100337
3031.55	0.00104113
3041.19	9.63264e-05
3050.83	0.000844072
3060.48	0.00246281
3070.12	0.00207644
3079.76	0.00155173
3089.4	0.00188017
3099.05	0.00206491
3108.69	0.00199247
3118.33	0.000907277
3127.97	0.00015814
3137.61	0.0019623
3147.26	0.00129154
3156.9	0.000698248
3166.54	0.00157406
3176.18	0.00208578
3185.83	0.00312716
3195.47	0.00338052
3205.11	0.00137838
3214.75	0.0019363
3224.4	0.00182977
3234.04	0.00286046
3243.68	0.00251982
3253.32	0.00143527
3262.97	0.00231543
3272.61	0.00188118
3282.25	0.00270073
3291.89	0.00205034
3301.53	0.00304509
3311.18	0.00206844
3320.82	0.00151143
3330.46	0.00224829
3340.1	0.00286364
3349.75	0.00294195
3359.39	0.0022564
3369.03	0.00312986
3378.67	0.00303752
3388.32	0.00342791
3397.96	0.0035649
3407.6	0.0023588
3417.24	0.000976072
3426.89	0.00327602
3436.53	0.0037587
3446.17	0.00303903
3455.81	0.00292223
3465.45	0.00330925
3475.1	0.00283152
3484.74	0.00304569
3494.38	0.00126404
3504.02	0.000381784
3513.67	0.000459865
3523.31	0.00119198
3532.95	0.0020401
3542.59	0.0001605
3552.24	0.00138501
3561.88	0.000306252
3571.52	-0.000119462
3581.16	0.000382578
3590.8	0.00354127
3600.45	0.00206321
3610.09	0.00072066
3619.73	0.00118148
3629.37	-0.00149589
3639.02	0.000496091
3648.66	0.000381983
3658.3	0.000375405
3667.94	-0.000983933
3677.59	-0.00193124
3687.23	-0.00359317
3696.87	-0.000380164
3706.51	0.000104275
3716.16	0.000577698
3725.8	-0.00405303
3735.44	-0.00168002
3745.08	-0.00182654
3754.72	-0.00344863
3764.37	-0.00102974
3774.01	-0.00105457
3783.65	0.000183687
3793.29	-0.00354108
3802.94	-0.000953946
3812.58	0.000908379
3822.22	-0.000415513
3831.86	-0.00186452
3841.51	-0.00303459
3851.15	-0.00138322
3860.79	-0.00167203
3870.43	-0.00391543
3880.07	-0.00280896
3889.72	-0.0008432
3899.36	-0.00215959
3909	-0.00459975
3918.64	-0.000525645
3928.29	-0.00174706
3937.93	-0.00336404
3947.57	-0.00045458
3957.21	0.00193159
3966.86	-0.00119892
3976.5	-0.00364628
3986.14	0.00117969
3995.78	-0.00274781
