Measurement: Infrared, Infrared Data Processed
Mineral: Fluorophlogopite
Rruff sample: R040039
Ideal chemistry: KMg_3_(Si_3_Al)O_10_F_2_
Locality: Franklin, Sussex County, New Jersey, USA
Source: University of Arizona Mineral Museum
Description: Brown hexagonal sheets
Measured chemistry: (K_0.92_Na_0.06_[box]_0.02_)_Σ=1_(Mg_2.94_Fe_0.04_Ti_0.02_)_Σ=3_(Si_2.98_Al_1.02_)O_10_(F_1.24_(OH)_0.76_)_Σ=2_; OH estimated by charge balance
x	intensity
399.193	0
408.835	0.141997
418.477	0.151115
428.12	0.160327
437.762	0.169296
447.404	0.179123
457.047	0.181829
466.689	0.168614
476.331	0.139086
485.974	0.119289
495.616	0.111522
505.258	0.100061
514.901	0.0889699
524.543	0.0764749
534.185	0.0654384
543.828	0.0547096
553.47	0.0449037
563.112	0.0325678
572.755	0.0251495
582.397	0.0238048
592.039	0.0244817
601.682	0.0259455
611.324	0.027437
620.966	0.0304161
630.609	0.03437
640.251	0.0399092
649.893	0.0456475
659.536	0.0510164
669.178	0.0544361
678.82	0.0624423
688.463	0.0664586
698.105	0.0505822
707.747	0.0436688
717.39	0.047102
727.032	0.05145
736.674	0.0500123
746.317	0.0459087
755.959	0.0478365
765.601	0.0523011
775.244	0.0576904
784.886	0.0640186
794.528	0.0759598
804.171	0.085861
813.813	0.0732303
823.455	0.048694
833.098	0.0433676
842.74	0.0455329
852.382	0.0545263
862.025	0.0685128
871.667	0.0913545
881.309	0.118601
890.952	0.146433
900.594	0.162996
910.236	0.178766
919.879	0.197447
929.521	0.218773
939.163	0.241161
948.806	0.260526
958.448	0.277071
968.09	0.283575
977.733	0.277323
987.375	0.26369
997.017	0.2585
1006.66	0.252802
1016.3	0.223328
1025.94	0.158845
1035.59	0.116316
1045.23	0.0933
1054.87	0.0845403
1064.51	0.0783433
1074.16	0.0751773
1083.8	0.0691729
1093.44	0.0559111
1103.08	0.043452
1112.72	0.0311695
1122.37	0.0239665
1132.01	0.0212392
1141.65	0.020505
1151.3	0.02188
1160.94	0.021819
1170.58	0.0159643
1180.22	0.0183251
1189.86	0.0192469
1199.51	0.0149523
1209.15	0.0134052
1218.79	0.015937
1228.43	0.0147528
1238.08	0.0129419
1247.72	0.0113667
1257.36	0.00874373
1267	0.00637355
1276.64	0.00614594
1286.29	0.00673554
1295.93	0.00667593
1305.57	0.00647924
1315.21	0.00628522
1324.86	0.00585326
1334.5	0.00641429
1344.14	0.00719754
1353.78	0.00816845
1363.43	0.0101819
1373.07	0.00980358
1382.71	0.0105257
1392.35	0.0109585
1401.99	0.0123786
1411.64	0.0141678
1421.28	0.0144283
1430.92	0.0153755
1440.57	0.0156809
1450.21	0.0163066
1459.85	0.0156794
1469.49	0.0138114
1479.13	0.0118767
1488.78	0.0113628
1498.42	0.0140538
1508.06	0.0129696
1517.7	0.00840805
1527.35	0.00783555
1536.99	0.00863265
1546.63	0.00974444
1556.27	0.0117675
1565.91	0.0142484
1575.56	0.0167431
1585.2	0.019052
1594.84	0.0209598
1604.48	0.0207975
1614.13	0.0189081
1623.77	0.0176639
1633.41	0.0169625
1643.05	0.0156468
1652.7	0.0139832
1662.34	0.0118147
1671.98	0.00981586
1681.62	0.00835319
1691.27	0.00737341
1700.91	0.00664385
1710.55	0.00601675
1720.19	0.00653056
1729.84	0.0065539
1739.48	0.0060107
1749.12	0.00741171
1758.76	0.0102186
1768.4	0.0140889
1778.05	0.0124233
1787.69	0.00833039
1797.33	0.00546284
1806.97	0.00393197
1816.62	0.00376449
1826.26	0.00359014
1835.9	0.00365114
1845.54	0.00368722
1855.18	0.0031672
1864.83	0.00263856
1874.47	0.00229845
1884.11	0.00222326
1893.75	0.00221027
1903.4	0.00136184
1913.04	0.000904228
1922.68	1.67565e-05
1932.32	0.000358359
1941.97	-0.000353281
1951.61	-0.00176618
1961.25	-0.00268665
1970.89	-0.00259387
1980.54	-0.00121144
1990.18	-0.00146563
1999.82	-0.0045308
2009.46	-0.0066539
2019.11	-0.0034266
2028.75	-0.00536906
2038.39	-0.00100184
2048.03	0.00110119
2057.67	0.000134837
2067.32	0.00223338
2076.96	0.00117411
2086.6	0.00218805
2096.24	0.00151538
2105.89	0.00105892
2115.53	0.00225788
2125.17	0.00148657
2134.81	0.00121596
2144.45	0.000273021
2154.1	-0.00173059
2163.74	0.00356289
2173.38	0.0013057
2183.02	0.00359547
2192.67	0.00331609
2202.31	0.00449112
2211.95	0.00367039
2221.59	0.00499298
2231.24	0.00615806
2240.88	0.00549318
2250.52	0.00547271
2260.16	0.00687045
2269.8	0.00613844
2279.45	0.00583558
2289.09	0.00666332
2298.73	0.00605022
2308.38	0.00564906
2318.02	0.00648089
2327.66	0.00538023
2337.3	0.00594998
2346.94	0.00552664
2356.59	0.00673014
2366.23	0.00586535
2375.87	0.00484297
2385.51	0.00534476
2395.16	0.00433714
2404.8	0.00592462
2414.44	0.00626863
2424.08	0.00550623
2433.72	0.00702607
2443.37	0.00462901
2453.01	0.00646679
2462.65	0.00533006
2472.29	0.00548134
2481.94	0.00548362
2491.58	0.00534735
2501.22	0.00532182
2510.86	0.00619693
2520.51	0.00593721
2530.15	0.00566612
2539.79	0.00642802
2549.43	0.00653348
2559.07	0.00542947
2568.72	0.00631401
2578.36	0.00612998
2588	0.00643419
2597.64	0.00722078
2607.29	0.00605299
2616.93	0.00670424
2626.57	0.00665121
2636.21	0.00706314
2645.86	0.00653876
2655.5	0.00661347
2665.14	0.00654396
2674.78	0.00645881
2684.43	0.00530475
2694.07	0.00639721
2703.71	0.00699718
2713.35	0.00671178
2722.99	0.0073164
2732.64	0.00706602
2742.28	0.00628119
2751.92	0.00747201
2761.56	0.00784536
2771.21	0.00749092
2780.85	0.00694145
2790.49	0.00782144
2800.13	0.00831919
2809.78	0.00765465
2819.42	0.00742233
2829.06	0.00803143
2838.7	0.00904276
2848.34	0.00833574
2857.99	0.0083672
2867.63	0.00960198
2877.27	0.00972342
2886.91	0.00901884
2896.56	0.00928272
2906.2	0.00905454
2915.84	0.009451
2925.48	0.00870405
2935.13	0.0107435
2944.77	0.0109814
2954.41	0.0112469
2964.05	0.0130507
2973.7	0.0115925
2983.34	0.0109674
2992.98	0.0107424
3002.62	0.0102123
3012.26	0.0102895
3021.91	0.0107457
3031.55	0.0112057
3041.19	0.0127355
3050.83	0.0123383
3060.48	0.0125984
3070.12	0.0140178
3079.76	0.0128295
3089.4	0.0132786
3099.05	0.0124326
3108.69	0.014131
3118.33	0.0143679
3127.97	0.0149129
3137.61	0.0148444
3147.26	0.0142276
3156.9	0.0144953
3166.54	0.0158169
3176.18	0.0166294
3185.83	0.0153664
3195.47	0.0162999
3205.11	0.0162756
3214.75	0.0164006
3224.4	0.017025
3234.04	0.0166646
3243.68	0.0175924
3253.32	0.0180771
3262.97	0.0178891
3272.61	0.0184341
3282.25	0.0182523
3291.89	0.0168585
3301.53	0.018767
3311.18	0.018119
3320.82	0.0180694
3330.46	0.0189254
3340.1	0.0198911
3349.75	0.0209831
3359.39	0.0204271
3369.03	0.0194076
3378.67	0.0192606
3388.32	0.0198591
3397.96	0.0191498
3407.6	0.020675
3417.24	0.0211502
3426.89	0.0196337
3436.53	0.0196139
3446.17	0.0193503
3455.81	0.0190471
3465.45	0.0192579
3475.1	0.0187306
3484.74	0.0185016
3494.38	0.0162576
3504.02	0.018359
3513.67	0.0177781
3523.31	0.0178346
3532.95	0.0165459
3542.59	0.0156015
3552.24	0.0158502
3561.88	0.0160974
3571.52	0.0168236
3581.16	0.0167406
3590.8	0.0165963
3600.45	0.0119712
3610.09	0.0150298
3619.73	0.012341
3629.37	0.0141115
3639.02	0.0128759
3648.66	0.0108311
3658.3	0.0112203
3667.94	0.0116186
3677.59	0.00921067
3687.23	0.0111257
3696.87	0.0128493
3706.51	0.0138463
3716.16	0.0113769
3725.8	0.0094193
3735.44	0.00847844
3745.08	0.00674226
3754.72	0.00855945
3764.37	0.00754903
3774.01	0.00720827
3783.65	0.00603914
3793.29	0.00892711
3802.94	0.00790843
3812.58	0.0095039
3822.22	0.0083696
3831.86	0.00919949
3841.51	0.00935547
3851.15	0.00945439
3860.79	0.0103665
3870.43	0.00839583
3880.07	0.0109954
3889.72	0.00606023
3899.36	0.00847619
3909	0.00914536
3918.64	0.00911436
3928.29	0.0105088
3937.93	0.00978428
3947.57	0.00927
3957.21	0.00928965
3966.86	0.00940956
3976.5	0.00998992
3986.14	0.00832724
3995.78	0.0116336
