Measurement: Infrared, Infrared Data Processed
Mineral: Fluorapatite
Rruff sample: R050194
Ideal chemistry: Ca_5_(PO_4_)_3_F
Locality: Siglo XX mine, Llallagua, Bolivia
Source: Dave Bunk Minerals
Description: Purple crystal fragments
Measured chemistry: Ca_5.00_(P_1.00_O_4_)_3_F_1.00_
x	intensity
399.193	0
408.835	0.0242808
418.477	0.0228667
428.12	0.023445
437.762	0.0235151
447.404	0.0278703
457.047	0.0335431
466.689	0.0411738
476.331	0.0426443
485.974	0.0355178
495.616	0.0332631
505.258	0.0342336
514.901	0.0399806
524.543	0.049179
534.185	0.0639138
543.828	0.0880466
553.47	0.13042
563.112	0.183937
572.755	0.197329
582.397	0.108163
592.039	0.113991
601.682	0.154012
611.324	0.0619679
620.966	0.0187828
630.609	0.0111078
640.251	0.00984128
649.893	0.00925751
659.536	0.00941438
669.178	0.00999755
678.82	0.0105186
688.463	0.0124557
698.105	0.0137082
707.747	0.0128846
717.39	0.0139479
727.032	0.0173316
736.674	0.0166596
746.317	0.0184573
755.959	0.0201112
765.601	0.022513
775.244	0.0263597
784.886	0.027079
794.528	0.0296711
804.171	0.0291234
813.813	0.0259733
823.455	0.0268928
833.098	0.0288729
842.74	0.0317335
852.382	0.0364976
862.025	0.0444624
871.667	0.0649332
881.309	0.0668416
890.952	0.05972
900.594	0.0691402
910.236	0.0795341
919.879	0.0908576
929.521	0.105674
939.163	0.123249
948.806	0.14772
958.448	0.178335
968.09	0.174929
977.733	0.210477
987.375	0.251215
997.017	0.2885
1006.66	0.323672
1016.3	0.356639
1025.94	0.371634
1035.59	0.354045
1045.23	0.316724
1054.87	0.254027
1064.51	0.198567
1074.16	0.148229
1083.8	0.103026
1093.44	0.162882
1103.08	0.0973246
1112.72	0.0589609
1122.37	0.0329276
1132.01	0.0220956
1141.65	0.0172704
1151.3	0.0142453
1160.94	0.0129538
1170.58	0.0110373
1180.22	0.00897959
1189.86	0.00749689
1199.51	0.00653396
1209.15	0.00534531
1218.79	0.00413983
1228.43	0.00391398
1238.08	0.00339216
1247.72	0.00338237
1257.36	0.00327828
1267	0.0035212
1276.64	0.0036788
1286.29	0.00378621
1295.93	0.0041909
1305.57	0.00434069
1315.21	0.0045715
1324.86	0.00524217
1334.5	0.00592673
1344.14	0.0070415
1353.78	0.00834726
1363.43	0.0102614
1373.07	0.012565
1382.71	0.0157612
1392.35	0.0212308
1401.99	0.0284386
1411.64	0.0376538
1421.28	0.0453611
1430.92	0.0498568
1440.57	0.0511273
1450.21	0.0520851
1459.85	0.0515751
1469.49	0.0489477
1479.13	0.0462243
1488.78	0.041877
1498.42	0.0362319
1508.06	0.0301265
1517.7	0.0239746
1527.35	0.0186831
1536.99	0.0143526
1546.63	0.0131892
1556.27	0.00975872
1565.91	0.0101113
1575.56	0.00802926
1585.2	0.00869801
1594.84	0.0083098
1604.48	0.00835532
1614.13	0.00693008
1623.77	0.00705907
1633.41	0.00593662
1643.05	0.00635127
1652.7	0.00318701
1662.34	0.0058045
1671.98	0.00593502
1681.62	0.00518174
1691.27	0.00581238
1700.91	0.0051705
1710.55	0.00528261
1720.19	0.0048045
1729.84	0.00470144
1739.48	0.00336564
1749.12	0.00371162
1758.76	0.00523778
1768.4	0.00540671
1778.05	0.00590698
1787.69	0.00588506
1797.33	0.00615308
1806.97	0.00660115
1816.62	0.00576362
1826.26	0.0056508
1835.9	0.00581565
1845.54	0.00548063
1855.18	0.00538615
1864.83	0.00548049
1874.47	0.00571758
1884.11	0.00509726
1893.75	0.00435918
1903.4	0.00424226
1913.04	0.0042901
1922.68	0.00332051
1932.32	0.00198642
1941.97	0.00285533
1951.61	-0.000121317
1961.25	0.00102093
1970.89	-0.00158585
1980.54	0.00191224
1990.18	0.00149369
1999.82	-0.00165265
2009.46	-0.000458007
2019.11	-0.000238527
2028.75	-0.000856358
2038.39	-0.00260919
2048.03	0.00103176
2057.67	0.00286549
2067.32	0.00286532
2076.96	0.00215764
2086.6	0.00302684
2096.24	0.00233924
2105.89	0.00358353
2115.53	0.00430548
2125.17	0.00201196
2134.81	0.00124456
2144.45	-0.000900783
2154.1	-0.00519684
2163.74	0.00546468
2173.38	0.00257225
2183.02	0.00312575
2192.67	0.00231364
2202.31	0.00475562
2211.95	0.00753938
2221.59	0.00603153
2231.24	0.00839279
2240.88	0.00894579
2250.52	0.00724032
2260.16	0.00835947
2269.8	0.00973929
2279.45	0.0098456
2289.09	0.0104103
2298.73	0.0102615
2308.38	0.0103078
2318.02	0.0105686
2327.66	0.0102013
2337.3	0.00983463
2346.94	0.00979875
2356.59	0.00926791
2366.23	0.00869332
2375.87	0.0095296
2385.51	0.00908934
2395.16	0.0094002
2404.8	0.0104951
2414.44	0.0102481
2424.08	0.0106607
2433.72	0.0100427
2443.37	0.0110928
2453.01	0.0120968
2462.65	0.010638
2472.29	0.0101376
2481.94	0.0112641
2491.58	0.0107625
2501.22	0.0113296
2510.86	0.0111728
2520.51	0.0106904
2530.15	0.010826
2539.79	0.0110228
2549.43	0.0116893
2559.07	0.0112872
2568.72	0.0114798
2578.36	0.0121765
2588	0.0121501
2597.64	0.0115015
2607.29	0.0124062
2616.93	0.0120643
2626.57	0.01243
2636.21	0.0134456
2645.86	0.0124795
2655.5	0.0125854
2665.14	0.011753
2674.78	0.0115849
2684.43	0.011437
2694.07	0.0119306
2703.71	0.0110086
2713.35	0.0126487
2722.99	0.0116462
2732.64	0.0121668
2742.28	0.0116658
2751.92	0.0124992
2761.56	0.0126742
2771.21	0.0131151
2780.85	0.0135092
2790.49	0.0120965
2800.13	0.0129122
2809.78	0.0123458
2819.42	0.0114592
2829.06	0.0116229
2838.7	0.0115177
2848.34	0.0123046
2857.99	0.0115033
2867.63	0.0115716
2877.27	0.0123158
2886.91	0.011753
2896.56	0.0123762
2906.2	0.0119763
2915.84	0.0130805
2925.48	0.0119558
2935.13	0.0113893
2944.77	0.0117718
2954.41	0.0119312
2964.05	0.0129338
2973.7	0.0124034
2983.34	0.0135868
2992.98	0.0123117
3002.62	0.0129975
3012.26	0.0144841
3021.91	0.0133682
3031.55	0.0127479
3041.19	0.0141661
3050.83	0.0143251
3060.48	0.0144169
3070.12	0.0148009
3079.76	0.0144695
3089.4	0.0136332
3099.05	0.0138279
3108.69	0.0159347
3118.33	0.0152785
3127.97	0.0166062
3137.61	0.0149965
3147.26	0.016122
3156.9	0.0171938
3166.54	0.0165429
3176.18	0.0165035
3185.83	0.0163223
3195.47	0.0165506
3205.11	0.0163775
3214.75	0.0182938
3224.4	0.0161508
3234.04	0.0160511
3243.68	0.0161704
3253.32	0.0166085
3262.97	0.0167172
3272.61	0.0180907
3282.25	0.0155708
3291.89	0.0170106
3301.53	0.0164312
3311.18	0.017521
3320.82	0.0158878
3330.46	0.0164429
3340.1	0.0158612
3349.75	0.017222
3359.39	0.0180831
3369.03	0.0178865
3378.67	0.0175647
3388.32	0.0163153
3397.96	0.0166533
3407.6	0.0176665
3417.24	0.0185688
3426.89	0.0175148
3436.53	0.017534
3446.17	0.0157508
3455.81	0.0171071
3465.45	0.0164601
3475.1	0.0167765
3484.74	0.0170933
3494.38	0.0178465
3504.02	0.0180344
3513.67	0.0182023
3523.31	0.0163404
3532.95	0.0169484
3542.59	0.0152691
3552.24	0.0171386
3561.88	0.0166519
3571.52	0.0163716
3581.16	0.0165225
3590.8	0.0142982
3600.45	0.0163419
3610.09	0.0151369
3619.73	0.015813
3629.37	0.016871
3639.02	0.0185196
3648.66	0.0128015
3658.3	0.0166759
3667.94	0.0133512
3677.59	0.0137926
3687.23	0.0125436
3696.87	0.0164664
3706.51	0.0144574
3716.16	0.0133676
3725.8	0.0174866
3735.44	0.0159233
3745.08	0.0145655
3754.72	0.0149699
3764.37	0.0162356
3774.01	0.0173386
3783.65	0.0182693
3793.29	0.0144133
3802.94	0.0146838
3812.58	0.015138
3822.22	0.0147443
3831.86	0.0158956
3841.51	0.0156058
3851.15	0.0135728
3860.79	0.0170101
3870.43	0.0153253
3880.07	0.0179626
3889.72	0.0154597
3899.36	0.0174421
3909	0.0183189
3918.64	0.0191246
3928.29	0.0193408
3937.93	0.0191265
3947.57	0.017338
3957.21	0.0167812
3966.86	0.0178267
3976.5	0.0158737
3986.14	0.0168727
3995.78	0.019269
