Measurement: Infrared, Infrared Data Processed
Mineral: Fluorapatite
Rruff sample: R050340
Ideal chemistry: Ca_5_(PO_4_)_3_F
Locality: Buckingham, Quebec, Canada
Source: California Institute of Technology
Description: Blue fragment
Measured chemistry: Ca_5.00_((P_0.98_Si_0.02_)O_4_)_3_F_1.00_
x	intensity
399.193	0.0140089
408.835	0.0115125
418.477	0.0144607
428.12	0.013011
437.762	0.0138773
447.404	0.0139224
457.047	0.0177331
466.689	0.0211097
476.331	0.0228029
485.974	0.0187524
495.616	0.0207051
505.258	0.021217
514.901	0.0311523
524.543	0.0418443
534.185	0.0499068
543.828	0.0853227
553.47	0.162275
563.112	0.231038
572.755	0.223714
582.397	0.126306
592.039	0.120861
601.682	0.175163
611.324	0.0703306
620.966	0.0239584
630.609	0.0154135
640.251	0.0126616
649.893	0.0151883
659.536	0.0123728
669.178	0.0111272
678.82	0.0111257
688.463	0.0116817
698.105	0.0111924
707.747	0.0118564
717.39	0.0134944
727.032	0.0139358
736.674	0.0158265
746.317	0.0163964
755.959	0.0153496
765.601	0.0146054
775.244	0.0138749
784.886	0.0146873
794.528	0.0156749
804.171	0.0164904
813.813	0.0183395
823.455	0.019647
833.098	0.0215386
842.74	0.0236545
852.382	0.0278995
862.025	0.0369521
871.667	0.0379206
881.309	0.0416812
890.952	0.0456657
900.594	0.0546936
910.236	0.0715377
919.879	0.0925337
929.521	0.108762
939.163	0.115994
948.806	0.146372
958.448	0.17981
968.09	0.176175
977.733	0.208294
987.375	0.273975
997.017	0.339592
1006.66	0.402232
1016.3	0.457105
1025.94	0.47582
1035.59	0.430529
1045.23	0.346945
1054.87	0.272152
1064.51	0.210721
1074.16	0.16055
1083.8	0.128993
1093.44	0.152191
1103.08	0.0984775
1112.72	0.0615495
1122.37	0.0314735
1132.01	0.0179546
1141.65	0.0172858
1151.3	0.0167348
1160.94	0.0174675
1170.58	0.0143065
1180.22	0.00914489
1189.86	0.00662233
1199.51	0.00537313
1209.15	0.00487244
1218.79	0.00414161
1228.43	0.00362152
1238.08	0.00318612
1247.72	0.00313234
1257.36	0.00303835
1267	0.00253539
1276.64	0.00284731
1286.29	0.0028231
1295.93	0.00277953
1305.57	0.00254335
1315.21	0.00279755
1324.86	0.00291097
1334.5	0.00268938
1344.14	0.00350414
1353.78	0.00360379
1363.43	0.00384645
1373.07	0.00431245
1382.71	0.00547811
1392.35	0.00699687
1401.99	0.00907915
1411.64	0.0137375
1421.28	0.0218332
1430.92	0.0244217
1440.57	0.0176818
1450.21	0.0256903
1459.85	0.0224668
1469.49	0.0154365
1479.13	0.0114817
1488.78	0.00956879
1498.42	0.00861194
1508.06	0.00769586
1517.7	0.00644159
1527.35	0.00605639
1536.99	0.00640959
1546.63	0.00657523
1556.27	0.00676043
1565.91	0.00709271
1575.56	0.0072457
1585.2	0.00686041
1594.84	0.00713595
1604.48	0.00686296
1614.13	0.00629284
1623.77	0.00604982
1633.41	0.00578885
1643.05	0.00595608
1652.7	0.0064169
1662.34	0.0057088
1671.98	0.00571193
1681.62	0.00543449
1691.27	0.00561212
1700.91	0.00632347
1710.55	0.00606052
1720.19	0.00603831
1729.84	0.00601559
1739.48	0.00650865
1749.12	0.005209
1758.76	0.00575776
1768.4	0.00508657
1778.05	0.00517195
1787.69	0.00499853
1797.33	0.00473263
1806.97	0.00531914
1816.62	0.00448552
1826.26	0.00512769
1835.9	0.00508123
1845.54	0.00440494
1855.18	0.00492498
1864.83	0.00370494
1874.47	0.00515342
1884.11	0.00474605
1893.75	0.0042244
1903.4	0.00508324
1913.04	0.00467274
1922.68	0.00164281
1932.32	0.00377479
1941.97	0.00401716
1951.61	0.00283524
1961.25	-0.00284227
1970.89	-0.00187054
1980.54	0.000866531
1990.18	-0.000549655
1999.82	-0.000798688
2009.46	-8.85531e-06
2019.11	-0.00567947
2028.75	-0.00288656
2038.39	-0.00399334
2048.03	0.00150259
2057.67	0.000192627
2067.32	0.00280089
2076.96	0.00245505
2086.6	0.00361313
2096.24	0.00336188
2105.89	0.00322223
2115.53	0.00236577
2125.17	0.00300529
2134.81	-0.00106883
2144.45	-0.00389119
2154.1	-0.00390094
2163.74	0.00156386
2173.38	-0.000392029
2183.02	-0.000149138
2192.67	0.00196013
2202.31	0.00359658
2211.95	0.00364727
2221.59	0.00646851
2231.24	0.00722334
2240.88	0.00795101
2250.52	0.00737112
2260.16	0.00791925
2269.8	0.00917186
2279.45	0.0103833
2289.09	0.0116315
2298.73	0.0111671
2308.38	0.0108242
2318.02	0.0107469
2327.66	0.0106338
2337.3	0.0101967
2346.94	0.00984571
2356.59	0.00965502
2366.23	0.00960446
2375.87	0.00932374
2385.51	0.00980123
2395.16	0.00892937
2404.8	0.00994763
2414.44	0.00954784
2424.08	0.0121301
2433.72	0.0100416
2443.37	0.0113489
2453.01	0.0106754
2462.65	0.0114022
2472.29	0.00991857
2481.94	0.0110626
2491.58	0.0104182
2501.22	0.0105625
2510.86	0.0120978
2520.51	0.0106243
2530.15	0.0123069
2539.79	0.0102977
2549.43	0.0114733
2559.07	0.0113069
2568.72	0.0126927
2578.36	0.0127169
2588	0.0116123
2597.64	0.0123573
2607.29	0.012148
2616.93	0.0132872
2626.57	0.0140253
2636.21	0.0132984
2645.86	0.0135511
2655.5	0.0138963
2665.14	0.0131016
2674.78	0.0125198
2684.43	0.0120968
2694.07	0.0130871
2703.71	0.0126958
2713.35	0.0139583
2722.99	0.0131139
2732.64	0.0133971
2742.28	0.0146323
2751.92	0.013374
2761.56	0.013733
2771.21	0.0143048
2780.85	0.0142706
2790.49	0.0141291
2800.13	0.0134327
2809.78	0.0141738
2819.42	0.01352
2829.06	0.0145094
2838.7	0.0153202
2848.34	0.0142042
2857.99	0.0139859
2867.63	0.0140167
2877.27	0.0145976
2886.91	0.0166461
2896.56	0.0164775
2906.2	0.0153547
2915.84	0.0157943
2925.48	0.01456
2935.13	0.0141725
2944.77	0.0138868
2954.41	0.0149631
2964.05	0.0131984
2973.7	0.0152875
2983.34	0.016464
2992.98	0.0147669
3002.62	0.0140723
3012.26	0.0144983
3021.91	0.0178466
3031.55	0.0161414
3041.19	0.0147487
3050.83	0.017882
3060.48	0.0160494
3070.12	0.0177793
3079.76	0.017158
3089.4	0.0157996
3099.05	0.0177586
3108.69	0.0170213
3118.33	0.0193501
3127.97	0.0187843
3137.61	0.0163254
3147.26	0.0164604
3156.9	0.0188716
3166.54	0.0196552
3176.18	0.0179609
3185.83	0.0184074
3195.47	0.0212532
3205.11	0.0204368
3214.75	0.0167208
3224.4	0.021558
3234.04	0.0182687
3243.68	0.0213357
3253.32	0.0206242
3262.97	0.0199881
3272.61	0.0217231
3282.25	0.0196006
3291.89	0.0198066
3301.53	0.020356
3311.18	0.0207244
3320.82	0.0196587
3330.46	0.0199613
3340.1	0.0180208
3349.75	0.0183367
3359.39	0.0192856
3369.03	0.0203386
3378.67	0.0190564
3388.32	0.0231667
3397.96	0.0225299
3407.6	0.0193049
3417.24	0.0190543
3426.89	0.0226611
3436.53	0.023177
3446.17	0.0187143
3455.81	0.0175101
3465.45	0.019363
3475.1	0.0229834
3484.74	0.0178229
3494.38	0.0187194
3504.02	0.017016
3513.67	0.0202897
3523.31	0.0206948
3532.95	0.0211772
3542.59	0.0200825
3552.24	0.0203667
3561.88	0.0182827
3571.52	0.0164494
3581.16	0.0165977
3590.8	0.0159815
3600.45	0.0165332
3610.09	0.0177948
3619.73	0.0147676
3629.37	0.0193838
3639.02	0.0172182
3648.66	0.0146093
3658.3	0.0149342
3667.94	0.016032
3677.59	0.0172319
3687.23	0.0178537
3696.87	0.0180914
3706.51	0.0162005
3716.16	0.0175774
3725.8	0.0195516
3735.44	0.0223425
3745.08	0.0250468
3754.72	0.0207256
3764.37	0.0179144
3774.01	0.021711
3783.65	0.0198899
3793.29	0.0203266
3802.94	0.0203437
3812.58	0.0210997
3822.22	0.0177007
3831.86	0.0186074
3841.51	0.0200661
3851.15	0.0241509
3860.79	0.0216867
3870.43	0.0203348
3880.07	0.0176212
3889.72	0.0236848
3899.36	0.0225719
3909	0.0218746
3918.64	0.0194612
3928.29	0.0209262
3937.93	0.0244868
3947.57	0.0228946
3957.21	0.0240301
3966.86	0.022236
3976.5	0.0229107
3986.14	0.0167558
3995.78	0.021699
