Measurement: Infrared, Infrared Data Processed
Mineral: Fluorite
Rruff sample: R050045
Ideal chemistry: CaF_2_
Locality: Hunan Province, China
Source: Eugene Schlepp
Description: Pale green colored cubes
Measured chemistry: Ca_1.000_ F_2.000_
x	intensity
399.193	0
408.835	0.0620465
418.477	0.0568638
428.12	0.0504223
437.762	0.0423667
447.404	0.0359568
457.047	0.0301889
466.689	0.0244441
476.331	0.0193905
485.974	0.0157225
495.616	0.0135811
505.258	0.012429
514.901	0.010932
524.543	0.0102655
534.185	0.00992966
543.828	0.00977942
553.47	0.0104226
563.112	0.00950905
572.755	0.00822245
582.397	0.00747327
592.039	0.00637367
601.682	0.00527721
611.324	0.0043981
620.966	0.00441308
630.609	0.00399486
640.251	0.00406921
649.893	0.00343956
659.536	0.0031747
669.178	0.00293016
678.82	0.00280745
688.463	0.00297613
698.105	0.00231569
707.747	0.0024716
717.39	0.00267425
727.032	0.00273638
736.674	0.00245948
746.317	0.00245699
755.959	0.00171574
765.601	0.00196255
775.244	0.00205927
784.886	0.00155767
794.528	0.00147762
804.171	0.0014952
813.813	0.00171662
823.455	0.00175348
833.098	0.00150289
842.74	0.00138321
852.382	0.00153286
862.025	0.00120487
871.667	0.00149231
881.309	0.00202892
890.952	0.00108224
900.594	0.00154769
910.236	0.0015221
919.879	0.00174052
929.521	0.00195619
939.163	0.00196796
948.806	0.00235741
958.448	0.00276776
968.09	0.00306211
977.733	0.00307478
987.375	0.0030785
997.017	0.00339915
1006.66	0.00363697
1016.3	0.00358886
1025.94	0.00354892
1035.59	0.00290825
1045.23	0.00265378
1054.87	0.00252549
1064.51	0.00245761
1074.16	0.00256796
1083.8	0.00301167
1093.44	0.00265044
1103.08	0.00266988
1112.72	0.00237391
1122.37	0.00195324
1132.01	0.00169742
1141.65	0.00161096
1151.3	0.00142221
1160.94	0.00146553
1170.58	0.00149738
1180.22	0.00147229
1189.86	0.00162151
1199.51	0.00145542
1209.15	0.00146247
1218.79	0.00121071
1228.43	0.00135636
1238.08	0.000891238
1247.72	0.000925442
1257.36	0.000655522
1267	0.000510553
1276.64	0.000590744
1286.29	0.00059956
1295.93	0.000703385
1305.57	0.000679119
1315.21	0.000815111
1324.86	0.000676531
1334.5	0.000869192
1344.14	0.000960458
1353.78	0.000987132
1363.43	0.000764363
1373.07	0.00123461
1382.71	0.00144941
1392.35	0.00134556
1401.99	0.00154035
1411.64	0.00161771
1421.28	0.00212327
1430.92	0.00249936
1440.57	0.00289907
1450.21	0.00316502
1459.85	0.00325059
1469.49	0.00258664
1479.13	0.00252875
1488.78	0.00230686
1498.42	0.00202929
1508.06	0.00175088
1517.7	0.00106653
1527.35	0.00116493
1536.99	0.00100742
1546.63	0.00130367
1556.27	0.00223209
1565.91	0.00238049
1575.56	0.00149453
1585.2	0.00157081
1594.84	0.00177756
1604.48	0.00160217
1614.13	0.00122232
1623.77	0.000980701
1633.41	0.00047073
1643.05	0.000559849
1652.7	-0.000181923
1662.34	0.000427036
1671.98	0.00069964
1681.62	0.000456104
1691.27	0.000843341
1700.91	0.000706212
1710.55	0.00092155
1720.19	0.00061873
1729.84	0.000292476
1739.48	0.000254949
1749.12	0.000265446
1758.76	5.9101e-06
1768.4	0.000504226
1778.05	0.000175033
1787.69	0.000393384
1797.33	0.000598137
1806.97	0.000354072
1816.62	-9.7641e-05
1826.26	0.000206745
1835.9	-0.000191126
1845.54	0.000344591
1855.18	8.556e-05
1864.83	0.00113759
1874.47	0.000145764
1884.11	-0.000236924
1893.75	-7.24268e-05
1903.4	-0.00032086
1913.04	0.000143539
1922.68	-0.000540757
1932.32	-0.000523603
1941.97	0.000224478
1951.61	0.000266043
1961.25	-0.00191586
1970.89	-0.00179466
1980.54	0.0024551
1990.18	0.000563476
1999.82	-0.00069539
2009.46	0.000768755
2019.11	-0.000262903
2028.75	0.000920427
2038.39	0.00106466
2048.03	0.00259061
2057.67	-0.000427505
2067.32	0.000950987
2076.96	0.00141655
2086.6	0.000750383
2096.24	0.000275283
2105.89	0.000932011
2115.53	0.00279039
2125.17	-0.000741629
2134.81	-0.00165108
2144.45	-0.0022446
2154.1	-0.00196032
2163.74	0.00298326
2173.38	0.00232219
2183.02	0.00213356
2192.67	0.00296951
2202.31	0.00172048
2211.95	0.00252852
2221.59	0.000890948
2231.24	0.000779001
2240.88	0.00350909
2250.52	0.00108346
2260.16	0.000760191
2269.8	0.00309483
2279.45	0.00205008
2289.09	0.00240757
2298.73	0.0026975
2308.38	0.00179654
2318.02	0.00178407
2327.66	0.00112791
2337.3	0.000964467
2346.94	7.45282e-05
2356.59	0.000813839
2366.23	1.97888e-05
2375.87	-3.61203e-05
2385.51	-5.34791e-05
2395.16	0.000725851
2404.8	-0.000357424
2414.44	0.000847471
2424.08	0.000670484
2433.72	0.00055932
2443.37	0.00118469
2453.01	0.000337301
2462.65	9.84231e-05
2472.29	0.000678452
2481.94	0.000385323
2491.58	0.000868191
2501.22	0.00156987
2510.86	0.000470837
2520.51	0.000553649
2530.15	9.51829e-05
2539.79	0.000846345
2549.43	0.00130774
2559.07	0.0011618
2568.72	0.00137213
2578.36	0.00128478
2588	0.00244418
2597.64	0.00166592
2607.29	0.000763921
2616.93	0.00101105
2626.57	0.00119398
2636.21	0.00224319
2645.86	0.00141755
2655.5	0.00189347
2665.14	9.24184e-05
2674.78	-0.000222442
2684.43	2.09542e-05
2694.07	-0.000124839
2703.71	1.44493e-05
2713.35	-0.000577039
2722.99	-0.000379452
2732.64	8.10892e-05
2742.28	-0.000247765
2751.92	-0.000388325
2761.56	-0.000281684
2771.21	5.33406e-05
2780.85	-0.00033616
2790.49	0.000405828
2800.13	-0.000215306
2809.78	-9.97763e-05
2819.42	0.000458664
2829.06	7.94016e-05
2838.7	0.000411469
2848.34	-0.000714163
2857.99	-0.000109122
2867.63	0.000195201
2877.27	-0.00122318
2886.91	-0.000493686
2896.56	-0.000736899
2906.2	-0.00109135
2915.84	-0.00121413
2925.48	-0.000528258
2935.13	-0.00138199
2944.77	-0.000641509
2954.41	-0.00109873
2964.05	-0.000843854
2973.7	-0.00112401
2983.34	-0.00131625
2992.98	-0.000776764
3002.62	-0.000103639
3012.26	-0.00069809
3021.91	-0.000761806
3031.55	-0.000851877
3041.19	-0.000273717
3050.83	-0.000206754
3060.48	-0.000324278
3070.12	-0.000751089
3079.76	-0.000522136
3089.4	-0.000554384
3099.05	-0.000813309
3108.69	-0.000613599
3118.33	0.000218444
3127.97	-0.000803753
3137.61	-0.000309165
3147.26	-0.0007264
3156.9	-0.000281257
3166.54	0.000341018
3176.18	0.000847553
3185.83	-0.000692445
3195.47	-0.000284308
3205.11	0.00162299
3214.75	-4.2049e-05
3224.4	-0.000825639
3234.04	0.00067382
3243.68	-0.00058561
3253.32	-0.00120028
3262.97	0.00107182
3272.61	-5.0042e-05
3282.25	0.000234599
3291.89	-0.000135233
3301.53	-0.000762926
3311.18	-0.00194129
3320.82	-0.0007121
3330.46	-0.00149659
3340.1	-0.00143428
3349.75	-0.00164342
3359.39	-0.00111786
3369.03	-0.00197584
3378.67	0.00129213
3388.32	-0.000760536
3397.96	-0.00169507
3407.6	-0.000643969
3417.24	-0.00103211
3426.89	-0.0010999
3436.53	-0.000970281
3446.17	-0.000622139
3455.81	-0.000585074
3465.45	-0.00149028
3475.1	-0.00115479
3484.74	-0.00105217
3494.38	-0.000920362
3504.02	-0.0016231
3513.67	-0.000610892
3523.31	-0.000378328
3532.95	-0.000737417
3542.59	-0.000799905
3552.24	-0.00216854
3561.88	-0.000261373
3571.52	7.87143e-05
3581.16	-0.00134337
3590.8	-0.000274694
3600.45	-0.00127726
3610.09	-0.0028923
3619.73	-0.00188693
3629.37	-0.000836568
3639.02	3.01203e-05
3648.66	-0.00260118
3658.3	-0.00308983
3667.94	-0.00212374
3677.59	-0.00226488
3687.23	-0.00167602
3696.87	-0.0011472
3706.51	-0.0025429
3716.16	-0.00202325
3725.8	-0.00224497
3735.44	-0.00304862
3745.08	-0.0027615
3754.72	-0.00120387
3764.37	-0.00164438
3774.01	-0.00162706
3783.65	-0.00221827
3793.29	-0.00100009
3802.94	-0.00149086
3812.58	-8.88478e-05
3822.22	-0.00261563
3831.86	-0.00273955
3841.51	-0.00393405
3851.15	-0.00363519
3860.79	-0.00350412
3870.43	-0.00226054
3880.07	-0.00268782
3889.72	-0.00127738
3899.36	-0.0025711
3909	-0.00165753
3918.64	-0.00138446
3928.29	-0.00152451
3937.93	-0.00121374
3947.57	-0.00342605
3957.21	-0.00181921
3966.86	-0.00101065
3976.5	-0.000830539
3986.14	-0.00208181
3995.78	-0.00375465
