Measurement: Infrared, Infrared Data Processed
Mineral: Foitite
Rruff sample: R050495
Ideal chemistry: [box](Fe^2+^_2_Al)Al_6_(Si_6_O_18_)(BO_3_)_3_(OH)_3_OH
Locality: Coahuila Mountain, California, USA
Source: California Institute of Technology
Description: Bluish black prismatic fragment
Measured chemistry: ([box]_0.54_Na_0.46_)_Σ=1_(Fe^2+^_1.75_Al_0.85_Mg_0.18_Li_0.14_Mn_0.08_)_Σ=3_Al_6.00_(BO_3_)_3_(Si_5.83_Al_0.17_)_Σ=6_O_18_(OH)_4_ ; B and Li not measured but estimated by charge balance
x	intensity
399.193	0.251715
408.835	0.258066
418.477	0.268855
428.12	0.26013
437.762	0.249902
447.404	0.249958
457.047	0.242629
466.689	0.259202
476.331	0.273446
485.974	0.28081
495.616	0.274629
505.258	0.258997
514.901	0.235834
524.543	0.204528
534.185	0.180387
543.828	0.167956
553.47	0.164196
563.112	0.152715
572.755	0.147453
582.397	0.150507
592.039	0.140024
601.682	0.129506
611.324	0.128695
620.966	0.111541
630.609	0.100916
640.251	0.100704
649.893	0.101648
659.536	0.0939541
669.178	0.0896482
678.82	0.0798889
688.463	0.0833739
698.105	0.10578
707.747	0.106533
717.39	0.08674
727.032	0.075218
736.674	0.0694864
746.317	0.080603
755.959	0.0758369
765.601	0.065077
775.244	0.0846192
784.886	0.0839995
794.528	0.0518984
804.171	0.0401299
813.813	0.0416555
823.455	0.04184
833.098	0.0415494
842.74	0.0447909
852.382	0.0498804
862.025	0.0479159
871.667	0.0468257
881.309	0.0528697
890.952	0.0645266
900.594	0.0794145
910.236	0.100476
919.879	0.129776
929.521	0.162925
939.163	0.201709
948.806	0.244222
958.448	0.27885
968.09	0.294473
977.733	0.295099
987.375	0.278326
997.017	0.25589
1006.66	0.240952
1016.3	0.233862
1025.94	0.222243
1035.59	0.201535
1045.23	0.17782
1054.87	0.158378
1064.51	0.141001
1074.16	0.116247
1083.8	0.0927058
1093.44	0.0884505
1103.08	0.0915284
1112.72	0.0866638
1122.37	0.0678095
1132.01	0.0436901
1141.65	0.0284661
1151.3	0.0219201
1160.94	0.0191926
1170.58	0.0169805
1180.22	0.016319
1189.86	0.0165257
1199.51	0.0175798
1209.15	0.0203964
1218.79	0.0269221
1228.43	0.0410926
1238.08	0.0647519
1247.72	0.0911363
1257.36	0.118532
1267	0.139353
1276.64	0.13901
1286.29	0.124133
1295.93	0.112806
1305.57	0.108329
1315.21	0.110888
1324.86	0.11485
1334.5	0.108538
1344.14	0.0958227
1353.78	0.0816845
1363.43	0.066502
1373.07	0.0528685
1382.71	0.0416928
1392.35	0.0316633
1401.99	0.0257022
1411.64	0.0210488
1421.28	0.0170522
1430.92	0.0128249
1440.57	0.00912483
1450.21	0.00713176
1459.85	0.00602908
1469.49	0.00532931
1479.13	0.00480241
1488.78	0.00440065
1498.42	0.0043088
1508.06	0.00423067
1517.7	0.00387513
1527.35	0.00386272
1536.99	0.00369565
1546.63	0.00381137
1556.27	0.00384286
1565.91	0.00369075
1575.56	0.00404109
1585.2	0.00388709
1594.84	0.00452662
1604.48	0.00460047
1614.13	0.00471975
1623.77	0.0048091
1633.41	0.00513121
1643.05	0.005272
1652.7	0.0051616
1662.34	0.00505971
1671.98	0.00499789
1681.62	0.00491169
1691.27	0.00473386
1700.91	0.00482267
1710.55	0.00466822
1720.19	0.00451323
1729.84	0.00416186
1739.48	0.00352711
1749.12	0.003078
1758.76	0.00334899
1768.4	0.00361743
1778.05	0.00359576
1787.69	0.00348143
1797.33	0.00359013
1806.97	0.00325623
1816.62	0.00318985
1826.26	0.00336789
1835.9	0.00309818
1845.54	0.00313241
1855.18	0.00314652
1864.83	0.00305332
1874.47	0.0024231
1884.11	0.00224648
1893.75	0.00229554
1903.4	0.00225735
1913.04	0.00210458
1922.68	0.0017864
1932.32	0.00134856
1941.97	0.00128771
1951.61	0.000972428
1961.25	0.000421864
1970.89	0.00177178
1980.54	0.00335338
1990.18	0.00180635
1999.82	0.000714774
2009.46	0.0023357
2019.11	0.0019576
2028.75	0.00269997
2038.39	0.00186519
2048.03	0.00256088
2057.67	0.0034799
2067.32	0.00249307
2076.96	0.00385711
2086.6	0.00317397
2096.24	0.00384196
2105.89	0.00347974
2115.53	0.00366506
2125.17	0.00264924
2134.81	0.00268595
2144.45	0.00259866
2154.1	0.00322454
2163.74	0.00697077
2173.38	0.00594998
2183.02	0.00614407
2192.67	0.00639423
2202.31	0.00548565
2211.95	0.00625536
2221.59	0.00670248
2231.24	0.0061892
2240.88	0.00700685
2250.52	0.00748998
2260.16	0.00717247
2269.8	0.00807169
2279.45	0.00835475
2289.09	0.00851537
2298.73	0.00731429
2308.38	0.00740095
2318.02	0.00772782
2327.66	0.00645146
2337.3	0.00652771
2346.94	0.0068565
2356.59	0.00608229
2366.23	0.00591757
2375.87	0.00633268
2385.51	0.00663244
2395.16	0.00634613
2404.8	0.00693327
2414.44	0.00710383
2424.08	0.00680937
2433.72	0.00653343
2443.37	0.0063206
2453.01	0.00642428
2462.65	0.00570552
2472.29	0.00531625
2481.94	0.00558321
2491.58	0.00490113
2501.22	0.00488257
2510.86	0.0044418
2520.51	0.0042082
2530.15	0.00373271
2539.79	0.004423
2549.43	0.00468104
2559.07	0.00441824
2568.72	0.00495363
2578.36	0.00594016
2588	0.0058001
2597.64	0.00658357
2607.29	0.00652046
2616.93	0.0067973
2626.57	0.00716054
2636.21	0.00710971
2645.86	0.00776796
2655.5	0.00724513
2665.14	0.00707389
2674.78	0.00710106
2684.43	0.00710067
2694.07	0.00717592
2703.71	0.00714082
2713.35	0.00767678
2722.99	0.00789085
2732.64	0.00831487
2742.28	0.00850488
2751.92	0.00837104
2761.56	0.00838359
2771.21	0.00889071
2780.85	0.00922899
2790.49	0.00897193
2800.13	0.00951485
2809.78	0.00940303
2819.42	0.00995892
2829.06	0.00984028
2838.7	0.00991572
2848.34	0.0102898
2857.99	0.010612
2867.63	0.0110874
2877.27	0.0105822
2886.91	0.0103517
2896.56	0.0111167
2906.2	0.0114747
2915.84	0.0117671
2925.48	0.0119446
2935.13	0.0115451
2944.77	0.0108466
2954.41	0.0116283
2964.05	0.0112951
2973.7	0.0110661
2983.34	0.0111601
2992.98	0.0109515
3002.62	0.0112189
3012.26	0.0109597
3021.91	0.0114753
3031.55	0.0116677
3041.19	0.0113269
3050.83	0.0122994
3060.48	0.0127244
3070.12	0.0119243
3079.76	0.0127557
3089.4	0.0130403
3099.05	0.0133558
3108.69	0.013327
3118.33	0.0139257
3127.97	0.0137383
3137.61	0.0134818
3147.26	0.014177
3156.9	0.0141783
3166.54	0.0148069
3176.18	0.0147137
3185.83	0.0146896
3195.47	0.015167
3205.11	0.0151675
3214.75	0.0154077
3224.4	0.015065
3234.04	0.0154158
3243.68	0.0161502
3253.32	0.0161769
3262.97	0.0160173
3272.61	0.0172511
3282.25	0.0168041
3291.89	0.0165458
3301.53	0.016682
3311.18	0.017427
3320.82	0.0178594
3330.46	0.0175469
3340.1	0.0178259
3349.75	0.0179889
3359.39	0.0175585
3369.03	0.0178129
3378.67	0.0180717
3388.32	0.018289
3397.96	0.0179914
3407.6	0.0186539
3417.24	0.0186688
3426.89	0.0194319
3436.53	0.0199964
3446.17	0.0209856
3455.81	0.0233739
3465.45	0.0261132
3475.1	0.0283981
3484.74	0.0291774
3494.38	0.0283834
3504.02	0.0267869
3513.67	0.0260444
3523.31	0.0269244
3532.95	0.028586
3542.59	0.0309379
3552.24	0.0301181
3561.88	0.0268568
3571.52	0.0208095
3581.16	0.0159894
3590.8	0.0134406
3600.45	0.0123416
3610.09	0.0113498
3619.73	0.0124461
3629.37	0.0140865
3639.02	0.0120967
3648.66	0.0108656
3658.3	0.0104642
3667.94	0.010252
3677.59	0.00975753
3687.23	0.00999568
3696.87	0.0105807
3706.51	0.0105638
3716.16	0.0101592
3725.8	0.0107384
3735.44	0.0118014
3745.08	0.0105807
3754.72	0.0105695
3764.37	0.00936917
3774.01	0.011511
3783.65	0.0118326
3793.29	0.0102689
3802.94	0.0110387
3812.58	0.0108839
3822.22	0.0105989
3831.86	0.0113582
3841.51	0.0113537
3851.15	0.011429
3860.79	0.00956802
3870.43	0.0112863
3880.07	0.0109829
3889.72	0.0108299
3899.36	0.0106035
3909	0.0113629
3918.64	0.0106767
3928.29	0.0106239
3937.93	0.010468
3947.57	0.0108078
3957.21	0.0110795
3966.86	0.0104514
3976.5	0.0111282
3986.14	0.0108712
3995.78	0.0102821
