Measurement: Infrared, Infrared Data Processed
Mineral: Forsterite
Rruff sample: R040052
Ideal chemistry: Mg_2_SiO_4_
Locality: Synthetic, Czochralski method
Source: Hideki Kanazawa of Kyoto University, Japan
Description: Colorless crystal fragments obtained from a boule.
Measured chemistry: Mg_2.00_Si_1.00_O_4_
x	intensity
399.193	0
408.835	0.239906
418.477	0.251696
428.12	0.192052
437.762	0.140791
447.404	0.114894
457.047	0.103446
466.689	0.11068
476.331	0.114587
485.974	0.0840955
495.616	0.138967
505.258	0.211967
514.901	0.168534
524.543	0.152751
534.185	0.120764
543.828	0.0888635
553.47	0.0663855
563.112	0.0491784
572.755	0.0358279
582.397	0.0313652
592.039	0.0381385
601.682	0.0697438
611.324	0.0915341
620.966	0.0726833
630.609	0.0511435
640.251	0.036267
649.893	0.0275709
659.536	0.0239509
669.178	0.0223427
678.82	0.0217939
688.463	0.0215547
698.105	0.020448
707.747	0.0202676
717.39	0.0207777
727.032	0.0223539
736.674	0.0237857
746.317	0.0262639
755.959	0.0295615
765.601	0.0344914
775.244	0.0406019
784.886	0.0492635
794.528	0.0620059
804.171	0.0789946
813.813	0.100231
823.455	0.125671
833.098	0.158133
842.74	0.159442
852.382	0.157745
862.025	0.20485
871.667	0.239207
881.309	0.24965
890.952	0.231297
900.594	0.20082
910.236	0.173109
919.879	0.150857
929.521	0.133077
939.163	0.118389
948.806	0.107642
958.448	0.104289
968.09	0.0735154
977.733	0.102683
987.375	0.120417
997.017	0.0974661
1006.66	0.0906901
1016.3	0.0781847
1025.94	0.0647175
1035.59	0.0519084
1045.23	0.042106
1054.87	0.0349049
1064.51	0.0282933
1074.16	0.0223719
1083.8	0.0188791
1093.44	0.0171205
1103.08	0.0158987
1112.72	0.0141569
1122.37	0.0125477
1132.01	0.0111663
1141.65	0.0104349
1151.3	0.00937054
1160.94	0.00817097
1170.58	0.00680011
1180.22	0.0058417
1189.86	0.00497255
1199.51	0.00434127
1209.15	0.00363494
1218.79	0.00340402
1228.43	0.00301407
1238.08	0.00251687
1247.72	0.00267336
1257.36	0.0024339
1267	0.00253281
1276.64	0.00244432
1286.29	0.00268715
1295.93	0.00262343
1305.57	0.00267157
1315.21	0.00300201
1324.86	0.00317619
1334.5	0.00315267
1344.14	0.00332394
1353.78	0.00349403
1363.43	0.00347557
1373.07	0.00361147
1382.71	0.00380244
1392.35	0.00393763
1401.99	0.00421614
1411.64	0.00464003
1421.28	0.00507563
1430.92	0.00492552
1440.57	0.00495784
1450.21	0.00507941
1459.85	0.00519151
1469.49	0.00513401
1479.13	0.00491542
1488.78	0.00454846
1498.42	0.00469783
1508.06	0.00463933
1517.7	0.00524095
1527.35	0.00516281
1536.99	0.00531658
1546.63	0.00617008
1556.27	0.00625979
1565.91	0.0066649
1575.56	0.00687495
1585.2	0.00763713
1594.84	0.00779123
1604.48	0.00818755
1614.13	0.00828817
1623.77	0.00834575
1633.41	0.0079882
1643.05	0.00829976
1652.7	0.00812917
1662.34	0.00782715
1671.98	0.00759242
1681.62	0.00685298
1691.27	0.00663067
1700.91	0.0065997
1710.55	0.00585757
1720.19	0.00543492
1729.84	0.00474893
1739.48	0.00465942
1749.12	0.00475152
1758.76	0.00475474
1768.4	0.00489606
1778.05	0.00542023
1787.69	0.00487064
1797.33	0.00475875
1806.97	0.00475641
1816.62	0.00405613
1826.26	0.0044536
1835.9	0.00458534
1845.54	0.00449164
1855.18	0.00415381
1864.83	0.0042422
1874.47	0.00421923
1884.11	0.00399744
1893.75	0.00388157
1903.4	0.0044041
1913.04	0.00357465
1922.68	0.00514945
1932.32	0.00356475
1941.97	0.00348399
1951.61	0.00224026
1961.25	0.00263724
1970.89	0.000317986
1980.54	0.00290451
1990.18	0.00240509
1999.82	0.00301847
2009.46	0.00103005
2019.11	0.00342594
2028.75	0.00280535
2038.39	0.00284443
2048.03	0.00591632
2057.67	0.00546183
2067.32	0.00437834
2076.96	0.00556815
2086.6	0.00664276
2096.24	0.00569018
2105.89	0.00612419
2115.53	0.00565798
2125.17	0.00588168
2134.81	0.00547744
2144.45	0.00441461
2154.1	0.00317732
2163.74	0.00514445
2173.38	0.00650506
2183.02	0.00672798
2192.67	0.00611089
2202.31	0.00751774
2211.95	0.0070611
2221.59	0.00722842
2231.24	0.00689389
2240.88	0.00817306
2250.52	0.00849885
2260.16	0.00906838
2269.8	0.00967396
2279.45	0.00870357
2289.09	0.00952642
2298.73	0.0105294
2308.38	0.00991784
2318.02	0.0096927
2327.66	0.00950851
2337.3	0.00973013
2346.94	0.00927524
2356.59	0.00984532
2366.23	0.00907414
2375.87	0.00891515
2385.51	0.00900721
2395.16	0.00914461
2404.8	0.00883118
2414.44	0.00978569
2424.08	0.00980515
2433.72	0.00968422
2443.37	0.00884561
2453.01	0.0104838
2462.65	0.00965942
2472.29	0.00931699
2481.94	0.0101215
2491.58	0.00999174
2501.22	0.00909216
2510.86	0.010061
2520.51	0.00911375
2530.15	0.0108969
2539.79	0.00948256
2549.43	0.0100686
2559.07	0.0104502
2568.72	0.0101833
2578.36	0.0115739
2588	0.00957408
2597.64	0.0104455
2607.29	0.011181
2616.93	0.0113027
2626.57	0.010899
2636.21	0.0105484
2645.86	0.0108494
2655.5	0.0113049
2665.14	0.0116995
2674.78	0.0106108
2684.43	0.0110413
2694.07	0.0107059
2703.71	0.0108364
2713.35	0.0111187
2722.99	0.011574
2732.64	0.0112516
2742.28	0.0115552
2751.92	0.0118385
2761.56	0.01204
2771.21	0.0122235
2780.85	0.0123871
2790.49	0.0117919
2800.13	0.012047
2809.78	0.0120425
2819.42	0.0131446
2829.06	0.012825
2838.7	0.0135488
2848.34	0.0143786
2857.99	0.0136986
2867.63	0.0133047
2877.27	0.0134822
2886.91	0.013676
2896.56	0.0144003
2906.2	0.015079
2915.84	0.0147213
2925.48	0.015752
2935.13	0.0153688
2944.77	0.0158058
2954.41	0.0139619
2964.05	0.0149281
2973.7	0.0145351
2983.34	0.0158208
2992.98	0.0158247
3002.62	0.0161009
3012.26	0.0154797
3021.91	0.0164488
3031.55	0.0173155
3041.19	0.0172944
3050.83	0.0167894
3060.48	0.0168085
3070.12	0.0175593
3079.76	0.0179952
3089.4	0.0192543
3099.05	0.0187576
3108.69	0.0176406
3118.33	0.0190966
3127.97	0.0188831
3137.61	0.0192838
3147.26	0.0191492
3156.9	0.0200169
3166.54	0.0189009
3176.18	0.0201726
3185.83	0.0192338
3195.47	0.0185538
3205.11	0.0210612
3214.75	0.020185
3224.4	0.0202653
3234.04	0.0203535
3243.68	0.0217948
3253.32	0.0210208
3262.97	0.0197507
3272.61	0.0213062
3282.25	0.0206666
3291.89	0.0217166
3301.53	0.0204463
3311.18	0.021331
3320.82	0.0209935
3330.46	0.0213166
3340.1	0.0214515
3349.75	0.0221897
3359.39	0.0207777
3369.03	0.021533
3378.67	0.0205628
3388.32	0.0210385
3397.96	0.0230042
3407.6	0.022526
3417.24	0.0211293
3426.89	0.0207003
3436.53	0.0208191
3446.17	0.0222357
3455.81	0.0212939
3465.45	0.020258
3475.1	0.0207565
3484.74	0.0220653
3494.38	0.0234348
3504.02	0.0214608
3513.67	0.0219181
3523.31	0.0228845
3532.95	0.0222252
3542.59	0.0187353
3552.24	0.0185256
3561.88	0.0176457
3571.52	0.0146873
3581.16	0.0159022
3590.8	0.0169572
3600.45	0.0162624
3610.09	0.015448
3619.73	0.0160068
3629.37	0.011957
3639.02	0.012724
3648.66	0.0124189
3658.3	0.0120202
3667.94	0.0107588
3677.59	0.0127194
3687.23	0.0120787
3696.87	0.0124546
3706.51	0.012293
3716.16	0.0124624
3725.8	0.0140537
3735.44	0.0142791
3745.08	0.0126862
3754.72	0.0115703
3764.37	0.0138447
3774.01	0.0126457
3783.65	0.0145296
3793.29	0.0150787
3802.94	0.0129341
3812.58	0.0135512
3822.22	0.0124964
3831.86	0.0133475
3841.51	0.0124216
3851.15	0.0146648
3860.79	0.0135838
3870.43	0.0143324
3880.07	0.0132824
3889.72	0.0147734
3899.36	0.0151403
3909	0.0142754
3918.64	0.0139093
3928.29	0.0114805
3937.93	0.0142552
3947.57	0.016097
3957.21	0.0157722
3966.86	0.0148626
3976.5	0.0149401
3986.14	0.0125747
3995.78	0.015289
