Measurement: Infrared, Infrared Data Processed
Mineral: Frankamenite
Rruff sample: R060100
Ideal chemistry: K_3_Na_3_Ca_5_Si_12_O_30_(F,OH)_4_H_2_O
Locality: Murun Massif, Sakka, Yakutia, Russia
Source: University of Arizona Mineral Museum
Description: Gray thin laths associated with purple charoite
Measured chemistry: (K_2.95_Na_0.05_)_Σ=3_Na_3.00_(Ca_4.90_Mn_0.10_)_Σ=5_Si_12.00_O_30_F_4.00_
x	intensity
374.123	0.0646361
383.765	0.0604252
393.407	0.0684647
403.05	0.0891134
412.692	0.111309
422.334	0.0968367
431.976	0.104784
441.619	0.184792
451.261	0.18851
460.904	0.141707
470.546	0.127974
480.188	0.138179
489.83	0.136857
499.473	0.111353
509.115	0.10896
518.758	0.100927
528.4	0.0683714
538.042	0.0378766
547.684	0.02484
557.327	0.019112
566.969	0.0160532
576.611	0.0152204
586.254	0.0158176
595.896	0.0192966
605.538	0.0215894
615.181	0.0246153
624.823	0.0300694
634.466	0.0278351
644.108	0.0462686
653.75	0.0326634
663.393	0.023474
673.035	0.0315115
682.677	0.025223
692.319	0.0426505
701.962	0.0370805
711.604	0.0193571
721.246	0.0176729
730.889	0.0204078
740.531	0.0255633
750.173	0.0463684
759.816	0.0847603
769.458	0.0982181
779.101	0.0524453
788.743	0.0439978
798.385	0.0504465
808.028	0.030971
817.67	0.0190129
827.312	0.0167504
836.955	0.0166266
846.597	0.0181588
856.239	0.0236355
865.881	0.0232531
875.524	0.0287832
885.166	0.0304393
894.808	0.0381309
904.451	0.0522229
914.093	0.0789608
923.736	0.131025
933.378	0.211633
943.02	0.27991
952.663	0.304575
962.305	0.278596
971.947	0.230273
981.59	0.194904
991.232	0.206882
1000.87	0.24594
1010.52	0.277931
1020.16	0.269444
1029.8	0.221431
1039.44	0.173586
1049.09	0.143895
1058.73	0.126941
1068.37	0.145989
1078.01	0.175158
1087.65	0.164488
1097.3	0.143724
1106.94	0.140784
1116.58	0.166422
1126.22	0.129374
1135.87	0.0821785
1145.51	0.0448124
1155.15	0.0242767
1164.79	0.01706
1174.44	0.0141037
1184.08	0.0124563
1193.72	0.0111086
1203.36	0.00989993
1213.01	0.00854132
1222.65	0.00710591
1232.29	0.00601402
1241.93	0.00486416
1251.58	0.00384588
1261.22	0.00345616
1270.86	0.00342612
1280.5	0.00359167
1290.14	0.00339815
1299.79	0.00293409
1309.43	0.00287865
1319.07	0.00282938
1328.71	0.00271475
1338.36	0.00293675
1348	0.00312857
1357.64	0.00383428
1367.28	0.00432915
1376.92	0.00537532
1386.57	0.00654189
1396.21	0.0087429
1405.85	0.0110209
1415.49	0.0134915
1425.14	0.0158042
1434.78	0.0188682
1444.42	0.0207385
1454.06	0.0200373
1463.71	0.0181808
1473.35	0.0162935
1482.99	0.0144582
1492.63	0.0117264
1502.28	0.00921837
1511.92	0.00698696
1521.56	0.00535965
1531.2	0.00465362
1540.85	0.00428074
1550.49	0.00445328
1560.13	0.00422694
1569.77	0.00425837
1579.41	0.00468882
1589.06	0.0060383
1598.7	0.00542914
1608.34	0.00392858
1617.98	0.00341704
1627.63	0.00325762
1637.27	0.00327437
1646.91	0.00323637
1656.55	0.00345809
1666.19	0.00376693
1675.84	0.00418578
1685.48	0.00427415
1695.12	0.0037451
1704.77	0.00234873
1714.41	0.000978619
1724.05	0.00104201
1733.69	7.53612e-05
1743.33	-0.00117699
1752.98	-0.000337493
1762.62	0.000128114
1772.26	0.000133669
1781.9	0.00020364
1791.55	0.000238032
1801.19	7.90835e-05
1810.83	-9.89623e-06
1820.47	-7.42511e-05
1830.12	-0.000227364
1839.76	-0.000586443
1849.4	-0.000570279
1859.04	-0.000952872
1868.68	-0.00102285
1878.33	-0.0016174
1887.97	-0.00181561
1897.61	-0.00197041
1907.25	-0.00210588
1916.9	-0.00167679
1926.54	-0.00214372
1936.18	-0.00214719
1945.82	-0.00240644
1955.46	-0.0021175
1965.11	-0.0018019
1974.75	-0.00140698
1984.39	-0.000566311
1994.04	-0.00194575
2003.68	-0.00388417
2013.32	-0.00210333
2022.96	-0.00404991
2032.6	-0.00308536
2042.25	-0.00193215
2051.89	-0.00153343
2061.53	-0.00240359
2071.17	-0.00242439
2080.82	-0.000885951
2090.46	-0.00177425
2100.1	-0.000829517
2109.74	-0.00083179
2119.39	-0.000715329
2129.03	-0.00112058
2138.67	-0.00123379
2148.31	-0.00127328
2157.95	0.000289366
2167.6	-0.000350254
2177.24	-0.000321531
2186.88	-0.000590801
2196.52	-0.00017348
2206.17	-0.00103384
2215.81	-0.00122973
2225.45	-0.00133173
2235.09	-0.00115851
2244.74	-0.00190114
2254.38	-0.00128669
2264.02	-0.00110541
2273.66	-0.000507307
2283.3	-0.000502448
2292.95	-0.000474773
2302.59	-0.000376797
2312.23	-0.000961397
2321.87	-0.000356214
2331.52	-0.0011012
2341.16	-0.00108763
2350.8	-0.00121991
2360.44	-0.00153447
2370.09	-0.00140213
2379.73	-0.00158888
2389.37	-0.00119507
2399.01	-0.00128865
2408.66	-0.00118912
2418.3	-0.00114034
2427.94	-0.00123574
2437.58	-0.00121272
2447.22	-0.000634934
2456.87	-0.000627484
2466.51	-0.000897112
2476.15	-0.000661693
2485.79	-0.000877987
2495.44	-0.000671653
2505.08	-0.000562307
2514.72	-0.000615468
2524.36	-0.00127863
2534.01	-0.00100963
2543.65	-0.000803241
2553.29	-0.000829314
2562.93	-0.00084597
2572.57	-0.000834012
2582.22	-0.000899489
2591.86	-0.00101063
2601.5	-0.00107032
2611.14	-0.00133313
2620.79	-0.000884463
2630.43	-0.001078
2640.07	-0.00092858
2649.71	-0.000893037
2659.36	-0.000982227
2669	-0.00113299
2678.64	-0.00139517
2688.28	-0.00114145
2697.93	-0.00143236
2707.57	-0.00130101
2717.21	-0.00115355
2726.85	-0.000940109
2736.49	-0.00087367
2746.14	-0.00121918
2755.78	-0.000577215
2765.42	-0.000529119
2775.06	-0.000444191
2784.71	-0.000402097
2794.35	-0.000517404
2803.99	-0.000682048
2813.63	-0.000515536
2823.28	-0.000460234
2832.92	-0.000430258
2842.56	-0.00198258
2852.2	-0.00651173
2861.84	-0.00303049
2871.49	-0.00224412
2881.13	-0.00184143
2890.77	-0.00209696
2900.41	-0.00315238
2910.06	-0.00479027
2919.7	-0.00918455
2929.34	-0.00793071
2938.98	-0.0039536
2948.62	-0.00177219
2958.27	-0.00138969
2967.91	-0.000603363
2977.55	0.00040477
2987.2	0.0014365
2996.84	0.00110774
3006.48	0.00149486
3016.12	0.00206171
3025.76	0.00227351
3035.41	0.002238
3045.05	0.002567
3054.69	0.00232929
3064.33	0.0024841
3073.98	0.00199841
3083.62	0.00256201
3093.26	0.00232337
3102.9	0.00258003
3112.55	0.00273464
3122.19	0.00238625
3131.83	0.00232
3141.47	0.00230991
3151.11	0.00217183
3160.76	0.0025901
3170.4	0.00156436
3180.04	0.00209514
3189.68	0.00175731
3199.33	0.00204689
3208.97	0.000858308
3218.61	0.00154355
3228.25	0.0014187
3237.9	0.00153183
3247.54	0.0010484
3257.18	0.000983784
3266.82	0.000718523
3276.47	0.0008234
3286.11	0.000174042
3295.75	0.000287707
3305.39	0.000462177
3315.03	0.000240606
3324.68	0.00063117
3334.32	-9.88238e-05
3343.96	0.000387669
3353.6	0.00094429
3363.25	-0.000213327
3372.89	-0.000307222
3382.53	-0.00036423
3392.17	-0.000283232
3401.82	0.000128605
3411.46	0.000275942
3421.1	0.000180482
3430.74	0.000710759
3440.39	-0.000530155
3450.03	0.00040318
3459.67	0.000434365
3469.31	0.000432833
3478.95	0.00041526
3488.6	0.000838158
3498.24	0.00117814
3507.88	0.00139743
3517.52	0.00166717
3527.17	0.00274218
3536.81	0.00361128
3546.45	0.00645041
3556.09	0.0117143
3565.74	0.00757138
3575.38	0.006174
3585.02	0.00902658
3594.66	0.0111426
3604.3	0.0126894
3613.95	0.00631624
3623.59	0.0021097
3633.23	-0.000711143
3642.87	-0.00219372
3652.52	-0.00314921
3662.16	-0.00346712
3671.8	-0.00307822
3681.44	-0.00469502
3691.09	-0.00371279
3700.73	-0.00343786
3710.37	-0.00426676
3720.01	-0.00382031
3729.66	-0.00358826
3739.3	-0.0041461
3748.94	-0.00406442
3758.58	-0.00375886
3768.22	-0.0041691
3777.87	-0.00393568
3787.51	-0.00497627
3797.15	-0.00430256
3806.79	-0.00439991
3816.44	-0.00496057
3826.08	-0.00413348
3835.72	-0.00485912
3845.36	-0.00452801
3855.01	-0.00409926
3864.65	-0.00492218
3874.29	-0.00534867
3883.93	-0.00552674
3893.57	-0.00455252
3903.22	-0.00399892
3912.86	-0.00433592
3922.5	-0.00402105
3932.14	-0.00427906
3941.79	-0.00476723
3951.43	-0.00440229
3961.07	-0.00418979
3970.71	-0.0043862
3980.36	-0.00356258
3990	-0.00453585
3999.64	-0.00445515
