Measurement: Infrared, Infrared Data Processed
Mineral: Gersdorffite
Rruff sample: R070304
Ideal chemistry: Ni^3+^(AsS)^3-^
Locality: Aït Ahmane, Bou Azzer, Anti-Atlas Mts, Morocco
Source: Michael Scott
Description: Steel gray metallic massive, this sample used by Bayliss to create ICDD data. Structure refined to determine space group.
Measured chemistry: (Ni_0.99_Co_0.01_)_Σ=1_As_1.00_S_1.00_ ; trace amounts of Fe
x	intensity
399.193	0.179402
408.835	0.187214
418.477	0.1812
428.12	0.183052
437.762	0.183822
447.404	0.186769
457.047	0.185445
466.689	0.186453
476.331	0.18747
485.974	0.183739
495.616	0.17899
505.258	0.176585
514.901	0.174799
524.543	0.175533
534.185	0.176112
543.828	0.178093
553.47	0.182001
563.112	0.183515
572.755	0.186923
582.397	0.188438
592.039	0.191469
601.682	0.192299
611.324	0.189898
620.966	0.185568
630.609	0.179811
640.251	0.177284
649.893	0.177692
659.536	0.179018
669.178	0.177186
678.82	0.176557
688.463	0.176638
698.105	0.177905
707.747	0.179134
717.39	0.180804
727.032	0.182847
736.674	0.184582
746.317	0.187044
755.959	0.189264
765.601	0.190663
775.244	0.191385
784.886	0.192503
794.528	0.19167
804.171	0.188454
813.813	0.185245
823.455	0.183898
833.098	0.181117
842.74	0.177857
852.382	0.172574
862.025	0.169043
871.667	0.166241
881.309	0.163206
890.952	0.160324
900.594	0.157749
910.236	0.155855
919.879	0.154757
929.521	0.154914
939.163	0.155899
948.806	0.158594
958.448	0.162307
968.09	0.16617
977.733	0.170779
987.375	0.171588
997.017	0.176131
1006.66	0.181383
1016.3	0.186349
1025.94	0.192154
1035.59	0.198571
1045.23	0.204696
1054.87	0.210979
1064.51	0.216507
1074.16	0.219128
1083.8	0.217764
1093.44	0.212875
1103.08	0.203984
1112.72	0.193819
1122.37	0.178968
1132.01	0.165448
1141.65	0.153398
1151.3	0.144929
1160.94	0.139358
1170.58	0.137069
1180.22	0.134873
1189.86	0.133431
1199.51	0.134176
1209.15	0.136156
1218.79	0.13775
1228.43	0.139603
1238.08	0.141568
1247.72	0.143536
1257.36	0.145169
1267	0.146663
1276.64	0.147978
1286.29	0.149277
1295.93	0.150782
1305.57	0.15205
1315.21	0.153191
1324.86	0.154376
1334.5	0.155728
1344.14	0.156635
1353.78	0.157718
1363.43	0.158958
1373.07	0.160037
1382.71	0.160857
1392.35	0.161872
1401.99	0.162752
1411.64	0.163609
1421.28	0.164325
1430.92	0.164969
1440.57	0.165592
1450.21	0.166403
1459.85	0.166635
1469.49	0.167225
1479.13	0.168294
1488.78	0.168988
1498.42	0.170056
1508.06	0.170914
1517.7	0.17153
1527.35	0.172128
1536.99	0.172573
1546.63	0.17305
1556.27	0.174027
1565.91	0.174607
1575.56	0.17563
1585.2	0.175999
1594.84	0.176884
1604.48	0.178122
1614.13	0.179701
1623.77	0.179655
1633.41	0.179415
1643.05	0.178269
1652.7	0.177169
1662.34	0.174419
1671.98	0.172115
1681.62	0.170694
1691.27	0.16973
1700.91	0.169592
1710.55	0.169297
1720.19	0.169577
1729.84	0.169306
1739.48	0.169139
1749.12	0.169555
1758.76	0.170168
1768.4	0.170665
1778.05	0.171101
1787.69	0.171662
1797.33	0.17216
1806.97	0.172325
1816.62	0.172486
1826.26	0.1731
1835.9	0.173618
1845.54	0.173964
1855.18	0.174386
1864.83	0.174456
1874.47	0.174582
1884.11	0.17489
1893.75	0.175614
1903.4	0.176034
1913.04	0.176988
1922.68	0.17707
1932.32	0.176783
1941.97	0.176574
1951.61	0.17791
1961.25	0.177779
1970.89	0.178646
1980.54	0.181251
1990.18	0.179216
1999.82	0.180121
2009.46	0.180883
2019.11	0.18101
2028.75	0.181019
2038.39	0.181388
2048.03	0.182938
2057.67	0.18277
2067.32	0.182515
2076.96	0.184248
2086.6	0.1836
2096.24	0.183618
2105.89	0.184257
2115.53	0.183849
2125.17	0.183688
2134.81	0.181526
2144.45	0.182143
2154.1	0.182202
2163.74	0.185645
2173.38	0.185124
2183.02	0.187243
2192.67	0.187628
2202.31	0.1868
2211.95	0.18885
2221.59	0.188768
2231.24	0.189847
2240.88	0.190929
2250.52	0.191172
2260.16	0.190605
2269.8	0.192088
2279.45	0.193058
2289.09	0.193549
2298.73	0.193476
2308.38	0.194367
2318.02	0.194693
2327.66	0.194381
2337.3	0.194285
2346.94	0.194752
2356.59	0.194892
2366.23	0.194347
2375.87	0.194399
2385.51	0.194193
2395.16	0.194447
2404.8	0.193726
2414.44	0.194425
2424.08	0.194772
2433.72	0.194412
2443.37	0.194703
2453.01	0.195146
2462.65	0.195222
2472.29	0.195289
2481.94	0.195536
2491.58	0.195475
2501.22	0.195544
2510.86	0.19655
2520.51	0.196874
2530.15	0.196608
2539.79	0.19737
2549.43	0.19742
2559.07	0.19805
2568.72	0.198925
2578.36	0.199517
2588	0.200141
2597.64	0.200973
2607.29	0.201477
2616.93	0.202785
2626.57	0.203018
2636.21	0.204208
2645.86	0.204805
2655.5	0.205472
2665.14	0.20586
2674.78	0.206237
2684.43	0.206815
2694.07	0.20741
2703.71	0.208139
2713.35	0.208455
2722.99	0.208926
2732.64	0.20997
2742.28	0.210422
2751.92	0.210574
2761.56	0.211335
2771.21	0.212174
2780.85	0.212337
2790.49	0.213083
2800.13	0.213391
2809.78	0.214528
2819.42	0.214571
2829.06	0.215091
2838.7	0.215954
2848.34	0.215665
2857.99	0.215609
2867.63	0.218221
2877.27	0.218336
2886.91	0.218886
2896.56	0.219928
2906.2	0.219829
2915.84	0.219983
2925.48	0.220385
2935.13	0.221449
2944.77	0.223803
2954.41	0.224463
2964.05	0.225623
2973.7	0.226825
2983.34	0.228164
2992.98	0.229354
3002.62	0.230636
3012.26	0.232002
3021.91	0.233569
3031.55	0.235167
3041.19	0.236518
3050.83	0.238442
3060.48	0.239855
3070.12	0.241069
3079.76	0.243229
3089.4	0.244234
3099.05	0.245681
3108.69	0.246953
3118.33	0.249091
3127.97	0.250189
3137.61	0.250604
3147.26	0.251899
3156.9	0.253446
3166.54	0.254946
3176.18	0.254701
3185.83	0.255809
3195.47	0.25646
3205.11	0.256598
3214.75	0.255772
3224.4	0.254657
3234.04	0.25468
3243.68	0.253241
3253.32	0.251963
3262.97	0.250645
3272.61	0.250144
3282.25	0.248619
3291.89	0.24864
3301.53	0.247119
3311.18	0.246258
3320.82	0.245041
3330.46	0.243205
3340.1	0.242014
3349.75	0.2391
3359.39	0.236933
3369.03	0.235088
3378.67	0.233108
3388.32	0.231223
3397.96	0.230258
3407.6	0.228493
3417.24	0.227162
3426.89	0.224353
3436.53	0.223195
3446.17	0.221806
3455.81	0.219366
3465.45	0.217575
3475.1	0.214675
3484.74	0.212409
3494.38	0.208965
3504.02	0.205475
3513.67	0.202868
3523.31	0.199323
3532.95	0.197068
3542.59	0.193499
3552.24	0.192159
3561.88	0.189852
3571.52	0.187198
3581.16	0.184563
3590.8	0.184035
3600.45	0.18229
3610.09	0.181618
3619.73	0.180777
3629.37	0.183046
3639.02	0.182596
3648.66	0.183214
3658.3	0.181814
3667.94	0.183939
3677.59	0.184484
3687.23	0.184654
3696.87	0.18605
3706.51	0.187662
3716.16	0.186682
3725.8	0.188922
3735.44	0.190805
3745.08	0.191253
3754.72	0.190276
3764.37	0.191104
3774.01	0.191752
3783.65	0.192298
3793.29	0.193008
3802.94	0.193601
3812.58	0.193845
3822.22	0.195225
3831.86	0.194881
3841.51	0.195778
3851.15	0.195535
3860.79	0.196342
3870.43	0.197274
3880.07	0.196907
3889.72	0.196871
3899.36	0.19735
3909	0.197603
3918.64	0.199251
3928.29	0.198524
3937.93	0.20006
3947.57	0.199935
3957.21	0.198629
3966.86	0.199342
3976.5	0.199845
3986.14	0.199863
3995.78	0.201093
