Measurement: Infrared, Infrared Data Processed
Mineral: Goethite
Rruff sample: R050142
Ideal chemistry: Fe^3+^O(OH)
Locality: Park County, Colorado, USA
Source: Dave Bunk Minerals
Description: Radiating spray of black to brown platy crystals
Measured chemistry: FeO(OH)
x	intensity
374.123	0.180625
383.765	0.226883
393.407	0.240731
403.05	0.221174
412.692	0.198756
422.334	0.197713
431.976	0.187408
441.619	0.182684
451.261	0.20034
460.904	0.19023
470.546	0.167964
480.188	0.144504
489.83	0.119183
499.473	0.0933085
509.115	0.0816401
518.758	0.0844925
528.4	0.088378
538.042	0.0958089
547.684	0.104737
557.327	0.109156
566.969	0.110245
576.611	0.106473
586.254	0.100947
595.896	0.0930053
605.538	0.0852784
615.181	0.0781029
624.823	0.0712589
634.466	0.064194
644.108	0.0601087
653.75	0.0612169
663.393	0.0613252
673.035	0.0538642
682.677	0.0389419
692.319	0.0310237
701.962	0.0300335
711.604	0.0326139
721.246	0.0372978
730.889	0.0428205
740.531	0.0503643
750.173	0.062096
759.816	0.0771983
769.458	0.0959893
779.101	0.118407
788.743	0.1405
798.385	0.1532
808.028	0.144305
817.67	0.12346
827.312	0.0996213
836.955	0.0811392
846.597	0.0745853
856.239	0.0773438
865.881	0.0858584
875.524	0.0976217
885.166	0.10891
894.808	0.111881
904.451	0.103219
914.093	0.0844862
923.736	0.0599746
933.378	0.0390183
943.02	0.0283178
952.663	0.0249254
962.305	0.0249158
971.947	0.0259234
981.59	0.0266213
991.232	0.026987
1000.87	0.0283288
1010.52	0.029629
1020.16	0.0308997
1029.8	0.0323207
1039.44	0.0337644
1049.09	0.0352913
1058.73	0.0361055
1068.37	0.0371175
1078.01	0.0384021
1087.65	0.0401314
1097.3	0.0416615
1106.94	0.0431288
1116.58	0.0438972
1126.22	0.0441024
1135.87	0.0442452
1145.51	0.0443466
1155.15	0.0444849
1164.79	0.04506
1174.44	0.045707
1184.08	0.0461686
1193.72	0.0472454
1203.36	0.0480879
1213.01	0.0490819
1222.65	0.0499463
1232.29	0.050944
1241.93	0.0518087
1251.58	0.05275
1261.22	0.0536695
1270.86	0.0548204
1280.5	0.0560883
1290.14	0.0572937
1299.79	0.058707
1309.43	0.0598823
1319.07	0.0610228
1328.71	0.0623979
1338.36	0.0636944
1348	0.0647174
1357.64	0.0661384
1367.28	0.0670106
1376.92	0.0684178
1386.57	0.0696578
1396.21	0.0710497
1405.85	0.072346
1415.49	0.0737719
1425.14	0.0748367
1434.78	0.0760635
1444.42	0.0771059
1454.06	0.0780169
1463.71	0.0791769
1473.35	0.0800263
1482.99	0.0808619
1492.63	0.081869
1502.28	0.0829398
1511.92	0.0843091
1521.56	0.085946
1531.2	0.0870235
1540.85	0.088776
1550.49	0.0897646
1560.13	0.0918597
1569.77	0.0924595
1579.41	0.0940221
1589.06	0.0952072
1598.7	0.0969524
1608.34	0.0987671
1617.98	0.101336
1627.63	0.103683
1637.27	0.106485
1646.91	0.11019
1656.55	0.111557
1666.19	0.107185
1675.84	0.101986
1685.48	0.101138
1695.12	0.101964
1704.77	0.102657
1714.41	0.104272
1724.05	0.105324
1733.69	0.107137
1743.33	0.10782
1752.98	0.109244
1762.62	0.11067
1772.26	0.111274
1781.9	0.11098
1791.55	0.110724
1801.19	0.108688
1810.83	0.10644
1820.47	0.104662
1830.12	0.103981
1839.76	0.104756
1849.4	0.104797
1859.04	0.106098
1868.68	0.10797
1878.33	0.109143
1887.97	0.110044
1897.61	0.111066
1907.25	0.112755
1916.9	0.11317
1926.54	0.114074
1936.18	0.1152
1945.82	0.115899
1955.46	0.115387
1965.11	0.115848
1974.75	0.117593
1984.39	0.119222
1994.04	0.117713
2003.68	0.118201
2013.32	0.119714
2022.96	0.119195
2032.6	0.120447
2042.25	0.120777
2051.89	0.119557
2061.53	0.121339
2071.17	0.120605
2080.82	0.122002
2090.46	0.122158
2100.1	0.123172
2109.74	0.122867
2119.39	0.123185
2129.03	0.12289
2138.67	0.123915
2148.31	0.125026
2157.95	0.127381
2167.6	0.127925
2177.24	0.129669
2186.88	0.132561
2196.52	0.131375
2206.17	0.131325
2215.81	0.132792
2225.45	0.132133
2235.09	0.133369
2244.74	0.134004
2254.38	0.134188
2264.02	0.135133
2273.66	0.136274
2283.3	0.136161
2292.95	0.136919
2302.59	0.136556
2312.23	0.138444
2321.87	0.139694
2331.52	0.14023
2341.16	0.140887
2350.8	0.140955
2360.44	0.1436
2370.09	0.143278
2379.73	0.14278
2389.37	0.142813
2399.01	0.144114
2408.66	0.145232
2418.3	0.146268
2427.94	0.146728
2437.58	0.147584
2447.22	0.149474
2456.87	0.150743
2466.51	0.150278
2476.15	0.151233
2485.79	0.151622
2495.44	0.153103
2505.08	0.153501
2514.72	0.154592
2524.36	0.155375
2534.01	0.1565
2543.65	0.156371
2553.29	0.157801
2562.93	0.158452
2572.57	0.160091
2582.22	0.159855
2591.86	0.161322
2601.5	0.161949
2611.14	0.162578
2620.79	0.16365
2630.43	0.164219
2640.07	0.165243
2649.71	0.16625
2659.36	0.166828
2669	0.167985
2678.64	0.168279
2688.28	0.16961
2697.93	0.17059
2707.57	0.171427
2717.21	0.173045
2726.85	0.17377
2736.49	0.174007
2746.14	0.175604
2755.78	0.176464
2765.42	0.177114
2775.06	0.177837
2784.71	0.178879
2794.35	0.179566
2803.99	0.180453
2813.63	0.181533
2823.28	0.18285
2832.92	0.183382
2842.56	0.185255
2852.2	0.186526
2861.84	0.187649
2871.49	0.18838
2881.13	0.18936
2890.77	0.191137
2900.41	0.192802
2910.06	0.194396
2919.7	0.196496
2929.34	0.197241
2938.98	0.198394
2948.62	0.199283
2958.27	0.203124
2967.91	0.204327
2977.55	0.206161
2987.2	0.209115
2996.84	0.212262
3006.48	0.214783
3016.12	0.218284
3025.76	0.221319
3035.41	0.224755
3045.05	0.227761
3054.69	0.231102
3064.33	0.23257
3073.98	0.233946
3083.62	0.232071
3093.26	0.227838
3102.9	0.221624
3112.55	0.215396
3122.19	0.208013
3131.83	0.200856
3141.47	0.19322
3151.11	0.187824
3160.76	0.182009
3170.4	0.177574
3180.04	0.172794
3189.68	0.16774
3199.33	0.164735
3208.97	0.160162
3218.61	0.15803
3228.25	0.155192
3237.9	0.150931
3247.54	0.148384
3257.18	0.145923
3266.82	0.142529
3276.47	0.141554
3286.11	0.139423
3295.75	0.137112
3305.39	0.136211
3315.03	0.135605
3324.68	0.134933
3334.32	0.134852
3343.96	0.133402
3353.6	0.133271
3363.25	0.132661
3372.89	0.132457
3382.53	0.131594
3392.17	0.131046
3401.82	0.13126
3411.46	0.130552
3421.1	0.130374
3430.74	0.130811
3440.39	0.130675
3450.03	0.131108
3459.67	0.132068
3469.31	0.13132
3478.95	0.13273
3488.6	0.133455
3498.24	0.133093
3507.88	0.134332
3517.52	0.134541
3527.17	0.135397
3536.81	0.136231
3546.45	0.136619
3556.09	0.137933
3565.74	0.139312
3575.38	0.139515
3585.02	0.141386
3594.66	0.141612
3604.3	0.14192
3613.95	0.143734
3623.59	0.144659
3633.23	0.144654
3642.87	0.145898
3652.52	0.148042
3662.16	0.148216
3671.8	0.148566
3681.44	0.14743
3691.09	0.15227
3700.73	0.151345
3710.37	0.152425
3720.01	0.153259
3729.66	0.152607
3739.3	0.154792
3748.94	0.15674
3758.58	0.154144
3768.22	0.155421
3777.87	0.156487
3787.51	0.156775
3797.15	0.156777
3806.79	0.160042
3816.44	0.16044
3826.08	0.160032
3835.72	0.160339
3845.36	0.161479
3855.01	0.162931
3864.65	0.163786
3874.29	0.163648
3883.93	0.164939
3893.57	0.164762
3903.22	0.165231
3912.86	0.166766
3922.5	0.165721
3932.14	0.16676
3941.79	0.168441
3951.43	0.168828
3961.07	0.16877
3970.71	0.16984
3980.36	0.170193
3990	0.170156
3999.64	0.17329
