Measurement: Infrared, Infrared Data Processed
Mineral: Goethite
Rruff sample: R050142
Ideal chemistry: Fe^3+^O(OH)
Locality: Park County, Colorado, USA
Source: Dave Bunk Minerals
Description: Radiating spray of black to brown platy crystals
Measured chemistry: FeO(OH)
x	intensity
50.1401	0.0239557
52.0686	0.0249946
53.9971	0.023201
55.9255	0.022447
57.854	0.0224297
59.7825	0.0257383
61.7109	0.0257583
63.6394	0.0315037
65.5679	0.03299
67.4963	0.0327277
69.4248	0.033147
71.3533	0.0388227
73.2817	0.0390796
75.2102	0.0379534
77.1387	0.0383032
79.0671	0.0421417
80.9956	0.0414205
82.9241	0.0436616
84.8525	0.0433888
86.781	0.043054
88.7095	0.0433029
90.6379	0.0456798
92.5664	0.0470197
94.4948	0.0488678
96.4233	0.0486393
98.3518	0.0501982
100.28	0.0496386
102.209	0.0501863
104.137	0.0513261
106.066	0.0520757
107.994	0.052765
109.923	0.0549775
111.851	0.0563266
113.779	0.0570032
115.708	0.0564373
117.636	0.0580439
119.565	0.0595528
121.493	0.0607222
123.422	0.060448
125.35	0.0615383
127.279	0.0623285
129.207	0.0640451
131.136	0.0645647
133.064	0.0649366
134.993	0.065678
136.921	0.0670331
138.85	0.0673055
140.778	0.0687443
142.707	0.0696793
144.635	0.0710733
146.563	0.0717019
148.492	0.0729459
150.42	0.072764
152.349	0.0735878
154.277	0.0745225
156.206	0.0754954
158.134	0.0756375
160.063	0.0763193
161.991	0.0767912
163.92	0.0778947
165.848	0.0783828
167.777	0.0792185
169.705	0.079018
171.633	0.0795789
173.562	0.0803446
175.49	0.0814122
177.419	0.0820918
179.347	0.0828304
181.276	0.0833207
183.204	0.0841643
185.133	0.0843246
187.061	0.0849116
188.99	0.085503
190.918	0.0860398
192.847	0.0861868
194.775	0.0873846
196.704	0.0875306
198.632	0.0859377
200.56	0.0852079
202.489	0.086152
204.417	0.0871276
206.346	0.0885086
208.274	0.0888207
210.203	0.0893429
212.131	0.0900403
214.06	0.0910232
215.988	0.0913874
217.917	0.0923192
219.845	0.0928346
221.774	0.0932042
223.702	0.0937054
225.631	0.0940873
227.559	0.0942899
229.488	0.0955829
231.416	0.0963539
233.344	0.0972168
235.273	0.0977603
237.201	0.0983012
239.13	0.0986585
241.058	0.0998573
242.987	0.0999789
244.915	0.0986973
246.844	0.098131
248.772	0.099364
250.701	0.100467
252.629	0.10121
254.558	0.101654
256.486	0.102365
258.414	0.102812
260.343	0.10353
262.271	0.103895
264.2	0.104377
266.128	0.104376
268.057	0.104891
269.985	0.105363
271.914	0.105671
273.842	0.105988
275.771	0.106487
277.699	0.106598
279.628	0.106915
281.556	0.106539
283.485	0.106186
285.413	0.105648
287.341	0.104503
289.27	0.102518
291.198	0.100465
293.127	0.0978579
295.055	0.0947572
296.984	0.0911406
298.912	0.0872464
300.841	0.0829773
302.769	0.0774799
304.698	0.0720721
306.626	0.0677703
308.555	0.064856
310.483	0.0648651
312.411	0.0678867
314.34	0.0724932
316.269	0.0780046
318.197	0.0834687
320.125	0.0888528
322.054	0.0934828
323.982	0.0974499
325.911	0.100978
327.839	0.103775
329.768	0.106181
331.696	0.108058
333.625	0.110177
335.553	0.111841
337.482	0.113588
339.41	0.115027
341.339	0.11597
343.267	0.116896
345.195	0.118358
347.124	0.119769
349.052	0.120752
350.981	0.121201
352.909	0.121713
354.838	0.122828
356.766	0.124121
358.695	0.124949
360.623	0.125877
362.552	0.126838
364.48	0.127582
366.409	0.128486
368.337	0.129585
370.265	0.130349
372.194	0.130942
374.122	0.131545
376.051	0.131922
377.979	0.13214
379.908	0.132306
381.836	0.131631
383.765	0.13039
385.693	0.128662
387.622	0.127989
389.55	0.128429
391.479	0.129499
393.407	0.130379
395.336	0.131187
397.264	0.131538
399.192	0.131529
401.121	0.130538
403.049	0.128499
404.978	0.126267
406.906	0.123737
408.835	0.121385
410.763	0.120135
412.692	0.1197
414.62	0.120542
416.549	0.122226
418.477	0.124017
420.406	0.125572
422.334	0.126698
424.262	0.127177
426.191	0.127446
428.12	0.127146
430.048	0.126479
431.976	0.125705
433.905	0.12458
435.833	0.123582
437.762	0.123284
439.69	0.123347
441.619	0.124315
443.547	0.126368
445.476	0.128569
447.404	0.130218
449.333	0.131321
451.261	0.131675
453.19	0.131159
455.118	0.130731
457.046	0.130431
458.975	0.129184
460.903	0.128134
462.832	0.127094
464.76	0.125995
466.689	0.124491
468.617	0.122649
470.546	0.120932
472.474	0.118891
474.403	0.116816
476.331	0.115034
478.26	0.11274
480.188	0.110339
482.116	0.107932
484.045	0.105615
485.974	0.103122
487.902	0.100318
489.83	0.0975186
491.759	0.0943459
493.687	0.0910891
495.616	0.0884709
497.544	0.0857675
499.473	0.0827781
501.401	0.0803666
503.33	0.0785119
505.258	0.0776421
507.187	0.0773337
509.115	0.07716
511.043	0.0771555
512.972	0.0772523
514.9	0.0778118
516.829	0.0785423
518.757	0.0795528
520.686	0.0802185
522.614	0.0803928
524.543	0.0810423
526.471	0.0820408
528.4	0.0828301
530.328	0.0839531
532.257	0.0847141
534.185	0.0852913
536.114	0.0861672
538.042	0.0870842
539.971	0.0880221
541.899	0.0893258
543.827	0.0905655
545.756	0.0916498
547.684	0.0927801
549.613	0.0939625
551.541	0.0948204
553.47	0.095338
555.398	0.0962058
557.327	0.0972387
559.255	0.0974402
561.184	0.0972294
563.112	0.0973701
565.041	0.0976733
566.969	0.0974389
568.898	0.0969541
570.826	0.0971169
572.755	0.0970489
574.683	0.0967345
576.611	0.096188
578.54	0.0958914
580.468	0.0956916
582.397	0.0950349
584.325	0.0944147
586.254	0.093455
588.182	0.0926384
590.111	0.092105
592.039	0.0913493
593.968	0.0899471
595.896	0.0888781
597.824	0.0878365
599.753	0.0862579
601.682	0.085308
603.61	0.084544
605.538	0.0835716
607.467	0.0827565
609.395	0.0815256
611.324	0.0805154
613.252	0.0796898
615.181	0.0790607
617.109	0.0782323
619.038	0.0770556
620.966	0.0760066
622.894	0.0750181
624.823	0.0745135
626.751	0.0742087
628.68	0.0738006
630.608	0.0734838
632.537	0.0729004
634.465	0.0719652
636.394	0.0712413
638.322	0.0706864
640.251	0.0701816
642.179	0.0696882
644.108	0.069459
646.036	0.0695232
647.965	0.0695571
649.893	0.0698012
651.822	0.070224
653.75	0.0706222
655.678	0.0709216
657.607	0.0710844
659.535	0.0712984
661.464	0.0714128
663.392	0.0716301
665.321	0.0713832
667.249	0.0707322
669.178	0.0701419
671.106	0.0689661
673.035	0.0672935
674.963	0.0661913
676.892	0.0642738
678.82	0.0615412
680.749	0.0593866
682.677	0.0575937
684.606	0.0556703
686.534	0.0540938
688.462	0.0533638
690.391	0.053156
692.319	0.0522571
694.248	0.0521771
696.176	0.0532915
698.105	0.0536428
700.033	0.0525045
