Measurement: Infrared, Infrared Data Processed
Mineral: Gratonite
Rruff sample: R050365
Ideal chemistry: Pb^2+^_9_As^3+^_4_S^2-^_15_
Locality: Cerro de Pasco, Peru
Source: University of Arizona Mineral Museum
Description: Dark lead gray aggregate, including single crystals
Measured chemistry: Pb_9.00_As_4.00_S_15.00_
x	intensity
399.193	0.234271
408.835	0.224859
418.477	0.262077
428.12	0.286516
437.762	0.295415
447.404	0.310215
457.047	0.317079
466.689	0.30421
476.331	0.288028
485.974	0.282879
495.616	0.285014
505.258	0.287247
514.901	0.287813
524.543	0.285301
534.185	0.288658
543.828	0.291838
553.47	0.300089
563.112	0.31019
572.755	0.324005
582.397	0.331749
592.039	0.336971
601.682	0.341741
611.324	0.349501
620.966	0.355244
630.609	0.36422
640.251	0.37006
649.893	0.371675
659.536	0.377296
669.178	0.386771
678.82	0.395674
688.463	0.411459
698.105	0.40856
707.747	0.409126
717.39	0.416764
727.032	0.427762
736.674	0.435586
746.317	0.446292
755.959	0.459121
765.601	0.475656
775.244	0.488991
784.886	0.476146
794.528	0.482044
804.171	0.447651
813.813	0.432793
823.455	0.438952
833.098	0.448701
842.74	0.456915
852.382	0.466301
862.025	0.474698
871.667	0.483404
881.309	0.492001
890.952	0.501253
900.594	0.511087
910.236	0.520723
919.879	0.531285
929.521	0.541647
939.163	0.55352
948.806	0.56639
958.448	0.580018
968.09	0.592613
977.733	0.603526
987.375	0.613927
997.017	0.623148
1006.66	0.630828
1016.3	0.637948
1025.94	0.643702
1035.59	0.648271
1045.23	0.650507
1054.87	0.64734
1064.51	0.641133
1074.16	0.639799
1083.8	0.632364
1093.44	0.617663
1103.08	0.60403
1112.72	0.594549
1122.37	0.585811
1132.01	0.579114
1141.65	0.574077
1151.3	0.567273
1160.94	0.570459
1170.58	0.56174
1180.22	0.556642
1189.86	0.553378
1199.51	0.551501
1209.15	0.549182
1218.79	0.547336
1228.43	0.549715
1238.08	0.552697
1247.72	0.556741
1257.36	0.559898
1267	0.563823
1276.64	0.567959
1286.29	0.571503
1295.93	0.57531
1305.57	0.57946
1315.21	0.582336
1324.86	0.587119
1334.5	0.591273
1344.14	0.595934
1353.78	0.601007
1363.43	0.605799
1373.07	0.609777
1382.71	0.611573
1392.35	0.615244
1401.99	0.619277
1411.64	0.623041
1421.28	0.627904
1430.92	0.632271
1440.57	0.635883
1450.21	0.639957
1459.85	0.642811
1469.49	0.642358
1479.13	0.645703
1488.78	0.649212
1498.42	0.652591
1508.06	0.656749
1517.7	0.659668
1527.35	0.663375
1536.99	0.666588
1546.63	0.669085
1556.27	0.672836
1565.91	0.676245
1575.56	0.680867
1585.2	0.683701
1594.84	0.6879
1604.48	0.692479
1614.13	0.695812
1623.77	0.698103
1633.41	0.700414
1643.05	0.703232
1652.7	0.707468
1662.34	0.708586
1671.98	0.71149
1681.62	0.714779
1691.27	0.718344
1700.91	0.721079
1710.55	0.724374
1720.19	0.727981
1729.84	0.729794
1739.48	0.731114
1749.12	0.731524
1758.76	0.734021
1768.4	0.739095
1778.05	0.739637
1787.69	0.744533
1797.33	0.747179
1806.97	0.748303
1816.62	0.75069
1826.26	0.753674
1835.9	0.755282
1845.54	0.756941
1855.18	0.76391
1864.83	0.767505
1874.47	0.769799
1884.11	0.769904
1893.75	0.770546
1903.4	0.771356
1913.04	0.774634
1922.68	0.773016
1932.32	0.776608
1941.97	0.776918
1951.61	0.770053
1961.25	0.770548
1970.89	0.761948
1980.54	0.766386
1990.18	0.776254
1999.82	0.781506
2009.46	0.768329
2019.11	0.778152
2028.75	0.777149
2038.39	0.787197
2048.03	0.788416
2057.67	0.806564
2067.32	0.808464
2076.96	0.814731
2086.6	0.816669
2096.24	0.822151
2105.89	0.825564
2115.53	0.824662
2125.17	0.831345
2134.81	0.819483
2144.45	0.814248
2154.1	0.806341
2163.74	0.807037
2173.38	0.821751
2183.02	0.827225
2192.67	0.831522
2202.31	0.840951
2211.95	0.843287
2221.59	0.843182
2231.24	0.85289
2240.88	0.86215
2250.52	0.859913
2260.16	0.865623
2269.8	0.872116
2279.45	0.875032
2289.09	0.882264
2298.73	0.885494
2308.38	0.890962
2318.02	0.89446
2327.66	0.900396
2337.3	0.902729
2346.94	0.902823
2356.59	0.907924
2366.23	0.909656
2375.87	0.910674
2385.51	0.912461
2395.16	0.916258
2404.8	0.916881
2414.44	0.918036
2424.08	0.921914
2433.72	0.924406
2443.37	0.928786
2453.01	0.931518
2462.65	0.932073
2472.29	0.936237
2481.94	0.936494
2491.58	0.943254
2501.22	0.945752
2510.86	0.949409
2520.51	0.950613
2530.15	0.952574
2539.79	0.957423
2549.43	0.957703
2559.07	0.961815
2568.72	0.964987
2578.36	0.968468
2588	0.968912
2597.64	0.972649
2607.29	0.974721
2616.93	0.979014
2626.57	0.984368
2636.21	0.984317
2645.86	0.988067
2655.5	0.993126
2665.14	0.994744
2674.78	0.996815
2684.43	0.999472
2694.07	1.00214
2703.71	1.00563
2713.35	1.01035
2722.99	1.01183
2732.64	1.01122
2742.28	1.01682
2751.92	1.01843
2761.56	1.02148
2771.21	1.02221
2780.85	1.02975
2790.49	1.02781
2800.13	1.03514
2809.78	1.03595
2819.42	1.0389
2829.06	1.04322
2838.7	1.04825
2848.34	1.05049
2857.99	1.04963
2867.63	1.05447
2877.27	1.05416
2886.91	1.06048
2896.56	1.06505
2906.2	1.06725
2915.84	1.06762
2925.48	1.06461
2935.13	1.06568
2944.77	1.06974
2954.41	1.07298
2964.05	1.07254
2973.7	1.07268
2983.34	1.07594
2992.98	1.0762
3002.62	1.08527
3012.26	1.08341
3021.91	1.08818
3031.55	1.09064
3041.19	1.09391
3050.83	1.09843
3060.48	1.09777
3070.12	1.09993
3079.76	1.10408
3089.4	1.10719
3099.05	1.1126
3108.69	1.11712
3118.33	1.11504
3127.97	1.11858
3137.61	1.12321
3147.26	1.12374
3156.9	1.13069
3166.54	1.13016
3176.18	1.13921
3185.83	1.14142
3195.47	1.13924
3205.11	1.14294
3214.75	1.14829
3224.4	1.15295
3234.04	1.15326
3243.68	1.15634
3253.32	1.16237
3262.97	1.15882
3272.61	1.16745
3282.25	1.16713
3291.89	1.16958
3301.53	1.17551
3311.18	1.17956
3320.82	1.1822
3330.46	1.18193
3340.1	1.18386
3349.75	1.18672
3359.39	1.19309
3369.03	1.19144
3378.67	1.20002
3388.32	1.19582
3397.96	1.20056
3407.6	1.20284
3417.24	1.2058
3426.89	1.21443
3436.53	1.21343
3446.17	1.21372
3455.81	1.21537
3465.45	1.22249
3475.1	1.21501
3484.74	1.22133
3494.38	1.22609
3504.02	1.23455
3513.67	1.2302
3523.31	1.23385
3532.95	1.23587
3542.59	1.24268
3552.24	1.24117
3561.88	1.24219
3571.52	1.24259
3581.16	1.24055
3590.8	1.25413
3600.45	1.25581
3610.09	1.25174
3619.73	1.25477
3629.37	1.25765
3639.02	1.25562
3648.66	1.26374
3658.3	1.26874
3667.94	1.27053
3677.59	1.26742
3687.23	1.28021
3696.87	1.27768
3706.51	1.28308
3716.16	1.2818
3725.8	1.2855
3735.44	1.2916
3745.08	1.29598
3754.72	1.30832
3764.37	1.30406
3774.01	1.30005
3783.65	1.31415
3793.29	1.31517
3802.94	1.3195
3812.58	1.3267
3822.22	1.32823
3831.86	1.32801
3841.51	1.3254
3851.15	1.33479
3860.79	1.33996
3870.43	1.34133
3880.07	1.34553
3889.72	1.34156
3899.36	1.34704
3909	1.35805
3918.64	1.36349
3928.29	1.36533
3937.93	1.37153
3947.57	1.366
3957.21	1.37081
3966.86	1.3787
3976.5	1.3775
3986.14	1.3869
3995.78	1.39167
