Measurement: Infrared, Infrared Data Processed
Mineral: Greenockite
Rruff sample: R090045
Ideal chemistry: Cd^2+^S^2-^
Locality: Synthetic
Source: Carl Ingerson via UAMM
Description: Red and yellow bundles of bladed crystals
x	intensity
399.193	0.0202409
408.835	0.0225004
418.477	0.0206689
428.12	0.0238985
437.762	0.0289114
447.404	0.0357536
457.047	0.0422182
466.689	0.0482739
476.331	0.0527119
485.974	0.0589823
495.616	0.0664509
505.258	0.0725275
514.901	0.0784381
524.543	0.0814972
534.185	0.0837355
543.828	0.0876438
553.47	0.0924341
563.112	0.0941363
572.755	0.0971348
582.397	0.100117
592.039	0.104792
601.682	0.108244
611.324	0.112948
620.966	0.117751
630.609	0.121476
640.251	0.126096
649.893	0.130686
659.536	0.132442
669.178	0.13398
678.82	0.135704
688.463	0.138493
698.105	0.141275
707.747	0.143912
717.39	0.147154
727.032	0.149828
736.674	0.152162
746.317	0.15511
755.959	0.157705
765.601	0.160525
775.244	0.163753
784.886	0.165687
794.528	0.167591
804.171	0.170214
813.813	0.172491
823.455	0.174395
833.098	0.17629
842.74	0.178379
852.382	0.180341
862.025	0.182404
871.667	0.184575
881.309	0.186477
890.952	0.188274
900.594	0.190513
910.236	0.192267
919.879	0.194811
929.521	0.196915
939.163	0.199038
948.806	0.201466
958.448	0.203777
968.09	0.206278
977.733	0.208785
987.375	0.211555
997.017	0.214969
1006.66	0.218263
1016.3	0.221474
1025.94	0.225171
1035.59	0.22937
1045.23	0.231835
1054.87	0.232106
1064.51	0.230815
1074.16	0.22998
1083.8	0.228749
1093.44	0.229286
1103.08	0.232174
1112.72	0.236429
1122.37	0.242024
1132.01	0.243408
1141.65	0.243296
1151.3	0.243039
1160.94	0.242375
1170.58	0.241246
1180.22	0.240617
1189.86	0.241625
1199.51	0.242979
1209.15	0.243538
1218.79	0.244431
1228.43	0.245507
1238.08	0.246489
1247.72	0.247718
1257.36	0.248687
1267	0.24996
1276.64	0.251362
1286.29	0.252627
1295.93	0.254213
1305.57	0.255746
1315.21	0.257271
1324.86	0.258396
1334.5	0.25989
1344.14	0.261453
1353.78	0.262763
1363.43	0.264419
1373.07	0.266047
1382.71	0.267062
1392.35	0.26894
1401.99	0.270838
1411.64	0.272608
1421.28	0.274165
1430.92	0.275902
1440.57	0.277636
1450.21	0.278825
1459.85	0.279988
1469.49	0.279851
1479.13	0.279508
1488.78	0.280449
1498.42	0.281404
1508.06	0.282806
1517.7	0.283649
1527.35	0.284685
1536.99	0.285952
1546.63	0.286984
1556.27	0.288141
1565.91	0.288885
1575.56	0.289766
1585.2	0.290098
1594.84	0.291625
1604.48	0.293065
1614.13	0.294633
1623.77	0.29598
1633.41	0.297024
1643.05	0.298105
1652.7	0.299639
1662.34	0.300063
1671.98	0.30149
1681.62	0.302627
1691.27	0.30344
1700.91	0.304751
1710.55	0.305579
1720.19	0.306737
1729.84	0.307779
1739.48	0.307506
1749.12	0.307065
1758.76	0.308817
1768.4	0.310054
1778.05	0.311286
1787.69	0.311914
1797.33	0.313017
1806.97	0.314161
1816.62	0.315265
1826.26	0.316753
1835.9	0.31712
1845.54	0.318822
1855.18	0.319888
1864.83	0.320952
1874.47	0.32161
1884.11	0.322626
1893.75	0.324152
1903.4	0.325135
1913.04	0.326333
1922.68	0.328231
1932.32	0.329356
1941.97	0.330315
1951.61	0.330329
1961.25	0.332041
1970.89	0.331347
1980.54	0.335612
1990.18	0.335211
1999.82	0.336879
2009.46	0.337531
2019.11	0.338998
2028.75	0.338096
2038.39	0.339747
2048.03	0.341485
2057.67	0.342824
2067.32	0.342634
2076.96	0.344089
2086.6	0.345589
2096.24	0.345622
2105.89	0.347272
2115.53	0.347788
2125.17	0.34927
2134.81	0.349126
2144.45	0.350457
2154.1	0.349619
2163.74	0.352377
2173.38	0.352803
2183.02	0.355037
2192.67	0.356335
2202.31	0.357089
2211.95	0.35823
2221.59	0.360432
2231.24	0.360576
2240.88	0.362089
2250.52	0.362181
2260.16	0.362347
2269.8	0.363682
2279.45	0.364273
2289.09	0.364645
2298.73	0.364525
2308.38	0.366201
2318.02	0.366861
2327.66	0.367093
2337.3	0.367915
2346.94	0.368766
2356.59	0.369648
2366.23	0.370329
2375.87	0.371271
2385.51	0.372327
2395.16	0.372907
2404.8	0.373542
2414.44	0.375257
2424.08	0.375958
2433.72	0.377388
2443.37	0.377601
2453.01	0.37843
2462.65	0.378809
2472.29	0.380247
2481.94	0.380248
2491.58	0.381225
2501.22	0.382238
2510.86	0.383856
2520.51	0.384523
2530.15	0.385516
2539.79	0.386305
2549.43	0.386931
2559.07	0.388626
2568.72	0.388844
2578.36	0.390305
2588	0.390964
2597.64	0.391298
2607.29	0.392783
2616.93	0.393604
2626.57	0.394351
2636.21	0.395337
2645.86	0.396376
2655.5	0.396644
2665.14	0.397662
2674.78	0.398565
2684.43	0.399425
2694.07	0.400124
2703.71	0.401072
2713.35	0.401853
2722.99	0.402374
2732.64	0.404007
2742.28	0.404512
2751.92	0.405886
2761.56	0.406332
2771.21	0.407432
2780.85	0.408181
2790.49	0.40952
2800.13	0.410463
2809.78	0.411717
2819.42	0.412966
2829.06	0.414346
2838.7	0.417123
2848.34	0.419294
2857.99	0.419823
2867.63	0.419455
2877.27	0.419852
2886.91	0.420986
2896.56	0.423449
2906.2	0.426135
2915.84	0.427959
2925.48	0.428962
2935.13	0.42593
2944.77	0.424184
2954.41	0.426103
2964.05	0.424701
2973.7	0.423501
2983.34	0.423037
2992.98	0.42353
3002.62	0.424427
3012.26	0.426317
3021.91	0.427016
3031.55	0.428031
3041.19	0.428861
3050.83	0.429966
3060.48	0.430555
3070.12	0.431859
3079.76	0.43343
3089.4	0.43436
3099.05	0.434775
3108.69	0.435517
3118.33	0.437032
3127.97	0.437509
3137.61	0.43834
3147.26	0.439454
3156.9	0.440018
3166.54	0.441343
3176.18	0.441858
3185.83	0.443403
3195.47	0.4434
3205.11	0.445411
3214.75	0.445122
3224.4	0.445977
3234.04	0.446747
3243.68	0.44762
3253.32	0.448446
3262.97	0.44961
3272.61	0.450685
3282.25	0.451292
3291.89	0.45208
3301.53	0.452599
3311.18	0.454295
3320.82	0.454542
3330.46	0.455405
3340.1	0.456306
3349.75	0.456695
3359.39	0.457684
3369.03	0.458209
3378.67	0.458218
3388.32	0.460439
3397.96	0.45898
3407.6	0.460008
3417.24	0.461017
3426.89	0.461318
3436.53	0.46227
3446.17	0.462688
3455.81	0.46468
3465.45	0.463001
3475.1	0.465288
3484.74	0.465703
3494.38	0.466412
3504.02	0.466615
3513.67	0.467773
3523.31	0.468186
3532.95	0.468593
3542.59	0.469144
3552.24	0.470235
3561.88	0.46923
3571.52	0.471109
3581.16	0.472286
3590.8	0.471926
3600.45	0.47248
3610.09	0.473291
3619.73	0.47373
3629.37	0.475867
3639.02	0.475632
3648.66	0.478142
3658.3	0.477971
3667.94	0.479331
3677.59	0.479311
3687.23	0.479452
3696.87	0.481804
3706.51	0.481714
3716.16	0.483634
3725.8	0.483655
3735.44	0.485869
3745.08	0.486025
3754.72	0.484933
3764.37	0.485887
3774.01	0.486376
3783.65	0.48805
3793.29	0.488663
3802.94	0.49001
3812.58	0.489447
3822.22	0.49054
3831.86	0.492083
3841.51	0.492902
3851.15	0.493858
3860.79	0.494332
3870.43	0.495809
3880.07	0.495628
3889.72	0.496332
3899.36	0.497463
3909	0.498906
3918.64	0.497669
3928.29	0.499861
3937.93	0.499448
3947.57	0.500595
3957.21	0.500092
3966.86	0.501962
3976.5	0.502005
3986.14	0.502498
3995.78	0.503471
