Measurement: Infrared, Infrared Data Processed
Mineral: Hanksite
Rruff sample: R050291
Ideal chemistry: KNa_22_(S^6+^O_4_)_9_(CO_3_)_2_Cl
Locality: Searles Lake, Trona, San Bernardino County, California, USA
Source: Marcus Origlieri
Description: Pale yellow hexagonal prism with pyramidal terminations
Measured chemistry: K_1.00_(Na_21.65_K_0.35_)_Î£=22_(S_1.00_O_4_)_9_(CO_3_)_2_Cl_1.00_
x	intensity
399.193	0.00488791
408.835	0.00535467
418.477	0.00140473
428.12	0.00112726
437.762	0.00466229
447.404	0.00336665
457.047	0.00507732
466.689	0.00537184
476.331	0.00535476
485.974	0.00375971
495.616	0.00421547
505.258	0.00431881
514.901	0.00427465
524.543	0.00346696
534.185	0.00511179
543.828	0.00580555
553.47	0.00629699
563.112	0.00754192
572.755	0.00954554
582.397	0.0128534
592.039	0.0210002
601.682	0.0527705
611.324	0.218612
620.966	0.199863
630.609	0.196612
640.251	0.0486923
649.893	0.0120736
659.536	0.00642979
669.178	0.00471857
678.82	0.00430379
688.463	0.00467866
698.105	0.00498859
707.747	0.00912198
717.39	0.00486942
727.032	0.00458357
736.674	0.00479445
746.317	0.00484777
755.959	0.00477715
765.601	0.00482773
775.244	0.00519843
784.886	0.00550555
794.528	0.00451554
804.171	0.00532633
813.813	0.00510072
823.455	0.0059473
833.098	0.00643606
842.74	0.00625436
852.382	0.00842424
862.025	0.00901326
871.667	0.0268587
881.309	0.021241
890.952	0.0079137
900.594	0.00806907
910.236	0.00877556
919.879	0.00961344
929.521	0.010563
939.163	0.0117227
948.806	0.0135185
958.448	0.01575
968.09	0.0191356
977.733	0.0243384
987.375	0.0515506
997.017	0.032323
1006.66	0.0379356
1016.3	0.0484704
1025.94	0.0626722
1035.59	0.085724
1045.23	0.120665
1054.87	0.17452
1064.51	0.251325
1074.16	0.351992
1083.8	0.455219
1093.44	0.51571
1103.08	0.523917
1112.72	0.500492
1122.37	0.359974
1132.01	0.244259
1141.65	0.146929
1151.3	0.113928
1160.94	0.127085
1170.58	0.0663785
1180.22	0.0640633
1189.86	0.0575636
1199.51	0.0185293
1209.15	0.00774625
1218.79	0.00523389
1228.43	0.00364832
1238.08	0.00322891
1247.72	0.00269213
1257.36	0.00229942
1267	0.00193502
1276.64	0.00134238
1286.29	0.000754669
1295.93	0.000716341
1305.57	0.0010575
1315.21	0.000804194
1324.86	0.00105029
1334.5	0.00114189
1344.14	0.0012182
1353.78	0.00104792
1363.43	0.00183073
1373.07	0.00161563
1382.71	0.00307677
1392.35	0.0052159
1401.99	0.0074204
1411.64	0.0128686
1421.28	0.0226242
1430.92	0.0373691
1440.57	0.0815798
1450.21	0.245356
1459.85	0.353594
1469.49	0.132171
1479.13	0.0281838
1488.78	0.00754993
1498.42	0.00320241
1508.06	0.00112109
1517.7	0.000254555
1527.35	0.000190411
1536.99	0.000673539
1546.63	0.00136828
1556.27	0.000639871
1565.91	0.00130965
1575.56	0.00134355
1585.2	0.00109595
1594.84	0.00101608
1604.48	0.000346869
1614.13	0.000538348
1623.77	-0.000223673
1633.41	-0.000397519
1643.05	-0.000142186
1652.7	-0.000497272
1662.34	-0.000386063
1671.98	0.000327984
1681.62	-0.000277929
1691.27	-0.00029924
1700.91	-0.000757175
1710.55	-0.00113942
1720.19	-0.000748963
1729.84	-0.00194875
1739.48	-0.00350207
1749.12	-0.00338348
1758.76	-0.000271047
1768.4	0.000402825
1778.05	-0.000627472
1787.69	0.00362
1797.33	-7.05074e-05
1806.97	3.59234e-07
1816.62	-7.78844e-05
1826.26	-6.45629e-05
1835.9	0.000218656
1845.54	0.00020488
1855.18	-1.77031e-05
1864.83	0.00016246
1874.47	-0.000198041
1884.11	0.0012624
1893.75	-0.000811994
1903.4	0.000664112
1913.04	0.00147111
1922.68	-0.000709322
1932.32	0.000461304
1941.97	-0.000354403
1951.61	-0.000266377
1961.25	-0.000855866
1970.89	-0.00277775
1980.54	0.00215783
1990.18	0.00287837
1999.82	-4.50571e-05
2009.46	0.000286215
2019.11	0.00059281
2028.75	-0.00178981
2038.39	0.00100868
2048.03	0.00177242
2057.67	-0.00111914
2067.32	0.00107923
2076.96	0.00156821
2086.6	0.00231193
2096.24	-0.000252649
2105.89	0.00100561
2115.53	-0.000450607
2125.17	-0.00256077
2134.81	-0.00502031
2144.45	-0.0051198
2154.1	-0.0111072
2163.74	-0.00801254
2173.38	-0.00880594
2183.02	-0.009872
2192.67	-0.0100782
2202.31	-0.00828574
2211.95	-0.00805031
2221.59	-0.00898648
2231.24	-0.00732839
2240.88	-0.00521775
2250.52	-0.00488493
2260.16	-0.00312252
2269.8	-0.00291623
2279.45	0.000430222
2289.09	0.00140081
2298.73	0.00162458
2308.38	0.00079263
2318.02	0.0020404
2327.66	0.0027667
2337.3	0.0034864
2346.94	0.00214449
2356.59	0.00305582
2366.23	0.00208017
2375.87	-0.000824758
2385.51	0.000534934
2395.16	4.46019e-05
2404.8	1.05179e-05
2414.44	0.000755393
2424.08	0.000398059
2433.72	0.00200942
2443.37	0.00139267
2453.01	0.00262111
2462.65	0.00183998
2472.29	0.0016181
2481.94	0.000424918
2491.58	0.00170687
2501.22	0.00181575
2510.86	0.000712549
2520.51	0.0011756
2530.15	0.0035123
2539.79	0.00278614
2549.43	0.00138902
2559.07	0.00331243
2568.72	0.00227839
2578.36	0.00134926
2588	0.00102408
2597.64	0.000467804
2607.29	0.00112492
2616.93	0.0012092
2626.57	0.0018649
2636.21	0.00158114
2645.86	0.00191424
2655.5	0.00176911
2665.14	0.000664435
2674.78	0.000318655
2684.43	9.23295e-05
2694.07	-0.0011877
2703.71	-0.000183366
2713.35	-0.000402433
2722.99	0.000568727
2732.64	0.000367934
2742.28	0.000905974
2751.92	0.000154838
2761.56	0.00015236
2771.21	-0.000621378
2780.85	-0.00123231
2790.49	-0.000857543
2800.13	-0.00094033
2809.78	-0.00216682
2819.42	-0.0020146
2829.06	-0.00196066
2838.7	-0.00305028
2848.34	-0.00905689
2857.99	-0.00921051
2867.63	-0.00692894
2877.27	-0.00778758
2886.91	-0.0071476
2896.56	-0.0127153
2906.2	-0.0136324
2915.84	-0.0228158
2925.48	-0.0236791
2935.13	-0.0165551
2944.77	-0.00932145
2954.41	-0.00852227
2964.05	-0.00612067
2973.7	-0.00236827
2983.34	-0.00357955
2992.98	-0.00120514
3002.62	-0.000574124
3012.26	-0.00267353
3021.91	-0.00067619
3031.55	-0.000124348
3041.19	-0.00103226
3050.83	-0.00209255
3060.48	-0.000676408
3070.12	-0.00117167
3079.76	-0.00118921
3089.4	-0.00115683
3099.05	0.000527693
3108.69	-0.00134466
3118.33	0.00278224
3127.97	0.00129895
3137.61	0.000380346
3147.26	0.00138629
3156.9	-0.00197835
3166.54	-0.000434721
3176.18	-0.00152103
3185.83	0.00147186
3195.47	0.000944866
3205.11	-0.00101478
3214.75	0.00137764
3224.4	0.00222623
3234.04	-0.00247485
3243.68	0.00160457
3253.32	0.000369141
3262.97	0.000485196
3272.61	0.000643597
3282.25	0.00307464
3291.89	0.000818069
3301.53	0.00123646
3311.18	-0.000472674
3320.82	0.00150173
3330.46	-0.000772255
3340.1	0.000348877
3349.75	-0.000677218
3359.39	0.00186998
3369.03	-0.000483276
3378.67	-0.00204567
3388.32	-0.000362022
3397.96	0.000882729
3407.6	0.000657946
3417.24	0.000375169
3426.89	0.000100038
3436.53	0.00179105
3446.17	0.00125851
3455.81	0.00147922
3465.45	0.00107974
3475.1	0.00217087
3484.74	0.00142329
3494.38	1.04205e-05
3504.02	-0.000392492
3513.67	0.0045345
3523.31	0.0017845
3532.95	0.00414604
3542.59	-0.00218337
3552.24	0.00176745
3561.88	0.00113293
3571.52	0.00163512
3581.16	0.00175132
3590.8	0.000835806
3600.45	0.00224763
3610.09	0.00415237
3619.73	0.00365294
3629.37	0.000622447
3639.02	0.00132773
3648.66	0.000188124
3658.3	0.000926469
3667.94	0.00366627
3677.59	0.00354865
3687.23	0.00514317
3696.87	0.0021253
3706.51	0.00207403
3716.16	-0.000953616
3725.8	0.000712838
3735.44	0.00290315
3745.08	0.0046558
3754.72	0.00116837
3764.37	0.000867219
3774.01	0.00142041
3783.65	0.00507632
3793.29	0.00317477
3802.94	0.00563024
3812.58	0.00298057
3822.22	0.00143323
3831.86	0.00152364
3841.51	0.000264137
3851.15	0.00312437
3860.79	-0.00187124
3870.43	0.00233796
3880.07	0.00280925
3889.72	0.000421626
3899.36	-0.00205409
3909	0.00325046
3918.64	0.0077971
3928.29	-0.00170958
3937.93	0.00278866
3947.57	-0.00108607
3957.21	0.00991884
3966.86	0.000722798
3976.5	-0.000575289
3986.14	0.00309932
3995.78	0.00253181
