Measurement: Infrared, Infrared Data Processed
Mineral: Heterogenite
Rruff sample: R050382
Ideal chemistry: Co^3+^O(OH)
Locality: Goodsprings, Nevada, USA
Source: University of Arizona Mineral Museum
Description: Black massive, polytype 3R
Measured chemistry: (Co^3+^_0.90_Ni_0.03_As^5+^_0.03_Zn_0.03_Al_0.01_)_Î£=1_O(OH)
x	intensity
399.193	0.231053
408.835	0.210543
418.477	0.193787
428.12	0.193011
437.762	0.194569
447.404	0.208481
457.047	0.215318
466.689	0.221926
476.331	0.233202
485.974	0.244332
495.616	0.256932
505.258	0.265395
514.901	0.278853
524.543	0.288862
534.185	0.307777
543.828	0.324589
553.47	0.345358
563.112	0.354427
572.755	0.348285
582.397	0.323971
592.039	0.288009
601.682	0.242198
611.324	0.200558
620.966	0.163479
630.609	0.130817
640.251	0.104568
649.893	0.0967932
659.536	0.0972366
669.178	0.0988311
678.82	0.102555
688.463	0.106992
698.105	0.113262
707.747	0.120771
717.39	0.131465
727.032	0.171078
736.674	0.128749
746.317	0.130504
755.959	0.136228
765.601	0.142085
775.244	0.147833
784.886	0.154221
794.528	0.159319
804.171	0.164626
813.813	0.169807
823.455	0.175884
833.098	0.182527
842.74	0.190927
852.382	0.209208
862.025	0.228419
871.667	0.292169
881.309	0.295216
890.952	0.17552
900.594	0.163883
910.236	0.171813
919.879	0.176327
929.521	0.180373
939.163	0.183934
948.806	0.187512
958.448	0.190535
968.09	0.193571
977.733	0.19791
987.375	0.201969
997.017	0.206073
1006.66	0.209289
1016.3	0.212024
1025.94	0.213204
1035.59	0.213864
1045.23	0.213649
1054.87	0.213591
1064.51	0.213871
1074.16	0.213598
1083.8	0.21353
1093.44	0.213076
1103.08	0.212355
1112.72	0.210561
1122.37	0.209763
1132.01	0.210168
1141.65	0.211751
1151.3	0.213524
1160.94	0.215096
1170.58	0.217585
1180.22	0.220273
1189.86	0.222228
1199.51	0.223352
1209.15	0.224039
1218.79	0.225317
1228.43	0.22807
1238.08	0.231967
1247.72	0.237411
1257.36	0.24438
1267	0.251719
1276.64	0.259821
1286.29	0.266105
1295.93	0.27342
1305.57	0.281724
1315.21	0.291695
1324.86	0.302534
1334.5	0.315092
1344.14	0.327592
1353.78	0.342579
1363.43	0.360241
1373.07	0.379282
1382.71	0.402212
1392.35	0.428713
1401.99	0.45673
1411.64	0.475645
1421.28	0.493546
1430.92	0.506485
1440.57	0.490702
1450.21	0.466508
1459.85	0.431561
1469.49	0.39433
1479.13	0.359492
1488.78	0.328012
1498.42	0.298046
1508.06	0.267035
1517.7	0.238902
1527.35	0.215872
1536.99	0.199038
1546.63	0.187009
1556.27	0.176561
1565.91	0.166438
1575.56	0.160459
1585.2	0.159917
1594.84	0.162259
1604.48	0.162157
1614.13	0.162852
1623.77	0.162437
1633.41	0.162489
1643.05	0.162938
1652.7	0.162722
1662.34	0.162841
1671.98	0.162055
1681.62	0.161833
1691.27	0.161943
1700.91	0.161388
1710.55	0.161489
1720.19	0.161771
1729.84	0.161441
1739.48	0.160164
1749.12	0.160188
1758.76	0.161904
1768.4	0.163032
1778.05	0.164902
1787.69	0.167029
1797.33	0.168083
1806.97	0.170165
1816.62	0.172236
1826.26	0.171181
1835.9	0.168591
1845.54	0.168194
1855.18	0.169588
1864.83	0.170866
1874.47	0.173302
1884.11	0.173958
1893.75	0.174316
1903.4	0.17475
1913.04	0.177047
1922.68	0.176556
1932.32	0.177425
1941.97	0.176919
1951.61	0.175651
1961.25	0.178079
1970.89	0.17754
1980.54	0.180217
1990.18	0.180858
1999.82	0.176702
2009.46	0.175882
2019.11	0.176354
2028.75	0.180058
2038.39	0.177812
2048.03	0.17822
2057.67	0.174151
2067.32	0.171149
2076.96	0.167649
2086.6	0.16664
2096.24	0.159425
2105.89	0.159318
2115.53	0.154881
2125.17	0.155373
2134.81	0.150566
2144.45	0.146226
2154.1	0.136467
2163.74	0.144351
2173.38	0.138572
2183.02	0.139492
2192.67	0.14204
2202.31	0.14282
2211.95	0.142359
2221.59	0.142141
2231.24	0.139347
2240.88	0.139087
2250.52	0.138468
2260.16	0.138825
2269.8	0.137692
2279.45	0.137959
2289.09	0.138351
2298.73	0.137707
2308.38	0.137792
2318.02	0.138062
2327.66	0.139328
2337.3	0.139028
2346.94	0.138274
2356.59	0.139132
2366.23	0.138887
2375.87	0.138048
2385.51	0.139532
2395.16	0.140787
2404.8	0.14224
2414.44	0.142813
2424.08	0.144884
2433.72	0.146951
2443.37	0.146931
2453.01	0.149931
2462.65	0.148462
2472.29	0.151034
2481.94	0.153277
2491.58	0.155021
2501.22	0.159272
2510.86	0.160988
2520.51	0.165255
2530.15	0.16755
2539.79	0.16756
2549.43	0.168273
2559.07	0.169806
2568.72	0.170621
2578.36	0.17205
2588	0.174168
2597.64	0.173778
2607.29	0.174972
2616.93	0.178211
2626.57	0.180416
2636.21	0.179756
2645.86	0.179103
2655.5	0.179123
2665.14	0.17867
2674.78	0.179212
2684.43	0.178097
2694.07	0.17656
2703.71	0.17604
2713.35	0.175696
2722.99	0.176299
2732.64	0.174016
2742.28	0.172492
2751.92	0.172314
2761.56	0.171005
2771.21	0.171798
2780.85	0.170822
2790.49	0.169634
2800.13	0.169407
2809.78	0.168596
2819.42	0.166624
2829.06	0.168099
2838.7	0.16764
2848.34	0.165249
2857.99	0.165272
2867.63	0.164885
2877.27	0.165741
2886.91	0.166469
2896.56	0.164833
2906.2	0.163721
2915.84	0.162624
2925.48	0.163405
2935.13	0.159658
2944.77	0.159632
2954.41	0.158523
2964.05	0.160538
2973.7	0.158338
2983.34	0.158938
2992.98	0.158017
3002.62	0.157234
3012.26	0.158442
3021.91	0.157333
3031.55	0.156262
3041.19	0.156
3050.83	0.156653
3060.48	0.1565
3070.12	0.155489
3079.76	0.156583
3089.4	0.156961
3099.05	0.155087
3108.69	0.156026
3118.33	0.155317
3127.97	0.15771
3137.61	0.157674
3147.26	0.15719
3156.9	0.15798
3166.54	0.158031
3176.18	0.155365
3185.83	0.158373
3195.47	0.156225
3205.11	0.154294
3214.75	0.158038
3224.4	0.154939
3234.04	0.157252
3243.68	0.157399
3253.32	0.154171
3262.97	0.157447
3272.61	0.154623
3282.25	0.155154
3291.89	0.158174
3301.53	0.15456
3311.18	0.155412
3320.82	0.155746
3330.46	0.155318
3340.1	0.152476
3349.75	0.151108
3359.39	0.15206
3369.03	0.155443
3378.67	0.151325
3388.32	0.151356
3397.96	0.150047
3407.6	0.14835
3417.24	0.149352
3426.89	0.151067
3436.53	0.14964
3446.17	0.15005
3455.81	0.148223
3465.45	0.147118
3475.1	0.148508
3484.74	0.144905
3494.38	0.148125
3504.02	0.144373
3513.67	0.143657
3523.31	0.144448
3532.95	0.140173
3542.59	0.142209
3552.24	0.143011
3561.88	0.137068
3571.52	0.137495
3581.16	0.138285
3590.8	0.13406
3600.45	0.14137
3610.09	0.13756
3619.73	0.135203
3629.37	0.135175
3639.02	0.134715
3648.66	0.13526
3658.3	0.136799
3667.94	0.14242
3677.59	0.141499
3687.23	0.137357
3696.87	0.142678
3706.51	0.140532
3716.16	0.141557
3725.8	0.142199
3735.44	0.144066
3745.08	0.145641
3754.72	0.15089
3764.37	0.147497
3774.01	0.143981
3783.65	0.147002
3793.29	0.147206
3802.94	0.146961
3812.58	0.144097
3822.22	0.155574
3831.86	0.145496
3841.51	0.153312
3851.15	0.152059
3860.79	0.147389
3870.43	0.150326
3880.07	0.148751
3889.72	0.152758
3899.36	0.154497
3909	0.155554
3918.64	0.153092
3928.29	0.159801
3937.93	0.154538
3947.57	0.155884
3957.21	0.15233
3966.86	0.161677
3976.5	0.154956
3986.14	0.162128
3995.78	0.15634
