Measurement: Infrared, Infrared Data Processed
Mineral: Heulandite-Ca
Rruff sample: R050097
Ideal chemistry: (Ca,Na,K)_5_(Si_27_Al_9_)O_72_26H_2_O
Locality: Rat's Nest Claim, Custer County, Idaho, USA
Source: John Cornish
Description: Pale pink coffin-shaped tabular single crystals
Measured chemistry: (Ca_0.66_Na_0.30_K_0.04_)_5_(Si_0.77_Al_0.23_)_36_O_72_Â·24H_2_O
x	intensity
399.193	0
408.835	0.253664
418.477	0.25591
428.12	0.261388
437.762	0.271295
447.404	0.26861
457.047	0.249375
466.689	0.222622
476.331	0.177802
485.974	0.142074
495.616	0.120118
505.258	0.113167
514.901	0.116116
524.543	0.117238
534.185	0.108228
543.828	0.107105
553.47	0.11223
563.112	0.117775
572.755	0.121951
582.397	0.124301
592.039	0.12355
601.682	0.111347
611.324	0.0941382
620.966	0.0849226
630.609	0.0797423
640.251	0.078733
649.893	0.0817627
659.536	0.0858494
669.178	0.0860974
678.82	0.0804602
688.463	0.0781696
698.105	0.0809148
707.747	0.0846889
717.39	0.0871726
727.032	0.0849213
736.674	0.0798207
746.317	0.0734717
755.959	0.068179
765.601	0.0664633
775.244	0.0660416
784.886	0.0651858
794.528	0.0605395
804.171	0.0499803
813.813	0.0417447
823.455	0.0368361
833.098	0.0357528
842.74	0.0387067
852.382	0.0433951
862.025	0.0498638
871.667	0.0562361
881.309	0.0621779
890.952	0.0681464
900.594	0.0738965
910.236	0.0805953
919.879	0.0912754
929.521	0.108873
939.163	0.139442
948.806	0.192015
958.448	0.274861
968.09	0.376913
977.733	0.460794
987.375	0.503985
997.017	0.515607
1006.66	0.508742
1016.3	0.486811
1025.94	0.455574
1035.59	0.425323
1045.23	0.394451
1054.87	0.359102
1064.51	0.315758
1074.16	0.264442
1083.8	0.219431
1093.44	0.191989
1103.08	0.175044
1112.72	0.163965
1122.37	0.155736
1132.01	0.148171
1141.65	0.139796
1151.3	0.130274
1160.94	0.120928
1170.58	0.11179
1180.22	0.103118
1189.86	0.0942309
1199.51	0.0832958
1209.15	0.0645132
1218.79	0.0431437
1228.43	0.0282844
1238.08	0.0203335
1247.72	0.015633
1257.36	0.0127838
1267	0.0110344
1276.64	0.0101031
1286.29	0.00928392
1295.93	0.00838718
1305.57	0.00783355
1315.21	0.00762836
1324.86	0.00698018
1334.5	0.00673041
1344.14	0.00637557
1353.78	0.0063443
1363.43	0.00640521
1373.07	0.00651382
1382.71	0.00648949
1392.35	0.00645748
1401.99	0.0067985
1411.64	0.00676376
1421.28	0.00670957
1430.92	0.00696883
1440.57	0.00709286
1450.21	0.00664153
1459.85	0.00671992
1469.49	0.00670316
1479.13	0.00662502
1488.78	0.00642239
1498.42	0.00647889
1508.06	0.00636148
1517.7	0.00665283
1527.35	0.0072687
1536.99	0.0083388
1546.63	0.00892189
1556.27	0.00974308
1565.91	0.0110046
1575.56	0.0125702
1585.2	0.0151099
1594.84	0.0200763
1604.48	0.0281361
1614.13	0.0389838
1623.77	0.0454143
1633.41	0.0449992
1643.05	0.0380807
1652.7	0.029611
1662.34	0.023478
1671.98	0.0178805
1681.62	0.0132934
1691.27	0.0107666
1700.91	0.00762927
1710.55	0.00673648
1720.19	0.00609903
1729.84	0.00495449
1739.48	0.0036923
1749.12	0.003175
1758.76	0.00337086
1768.4	0.00318809
1778.05	0.00331803
1787.69	0.00325203
1797.33	0.00275149
1806.97	0.00300833
1816.62	0.00270067
1826.26	0.00198569
1835.9	0.00207656
1845.54	0.00197004
1855.18	0.00168637
1864.83	0.00117128
1874.47	0.00127474
1884.11	0.000808438
1893.75	0.000494122
1903.4	-0.000276372
1913.04	-0.00090293
1922.68	-0.00216327
1932.32	-0.00282904
1941.97	-0.00438524
1951.61	-0.00501686
1961.25	-0.00618925
1970.89	-0.0103497
1980.54	-0.00565616
1990.18	-0.00687368
1999.82	-0.0092637
2009.46	-0.0103457
2019.11	-0.00759673
2028.75	-0.00808735
2038.39	-0.00683246
2048.03	-0.00495416
2057.67	-0.00380916
2067.32	-0.00378473
2076.96	-0.00181037
2086.6	-0.00151334
2096.24	-0.0035302
2105.89	-0.00262259
2115.53	-0.00244767
2125.17	-0.00451734
2134.81	-0.00678152
2144.45	-0.00689519
2154.1	-0.00994643
2163.74	-0.00123404
2173.38	-0.00450593
2183.02	-0.00378571
2192.67	-0.00442179
2202.31	-0.00112597
2211.95	-0.00250542
2221.59	-0.000792405
2231.24	-0.000595654
2240.88	-0.000478806
2250.52	-0.000623933
2260.16	0.000471654
2269.8	0.000562742
2279.45	0.00162778
2289.09	0.00236268
2298.73	0.00168273
2308.38	0.00215469
2318.02	0.00208919
2327.66	0.00139156
2337.3	0.000871245
2346.94	-0.000160172
2356.59	-0.000207499
2366.23	-0.00125889
2375.87	-0.000329828
2385.51	0.000478649
2395.16	0.000329735
2404.8	0.000639629
2414.44	0.000890644
2424.08	0.00121118
2433.72	0.00162411
2443.37	0.0012708
2453.01	0.00225081
2462.65	0.00184299
2472.29	0.00192401
2481.94	0.00225926
2491.58	0.00209248
2501.22	0.00228076
2510.86	0.00208238
2520.51	0.00202825
2530.15	0.00277381
2539.79	0.00274819
2549.43	0.00266389
2559.07	0.00253282
2568.72	0.00367198
2578.36	0.00242942
2588	0.00338114
2597.64	0.00286715
2607.29	0.00336167
2616.93	0.00352612
2626.57	0.00393147
2636.21	0.00441143
2645.86	0.00391066
2655.5	0.00387443
2665.14	0.00275538
2674.78	0.00301174
2684.43	0.00302627
2694.07	0.00355731
2703.71	0.00353346
2713.35	0.00237594
2722.99	0.00366266
2732.64	0.00318154
2742.28	0.00367215
2751.92	0.00336012
2761.56	0.00381655
2771.21	0.00514089
2780.85	0.00478897
2790.49	0.00458553
2800.13	0.00555931
2809.78	0.0043166
2819.42	0.00530488
2829.06	0.00556265
2838.7	0.00609801
2848.34	0.006315
2857.99	0.00582236
2867.63	0.0069127
2877.27	0.00732249
2886.91	0.00797324
2896.56	0.00785031
2906.2	0.0081813
2915.84	0.00884288
2925.48	0.00838236
2935.13	0.00906529
2944.77	0.00988381
2954.41	0.0107693
2964.05	0.0104383
2973.7	0.0118512
2983.34	0.0133842
2992.98	0.013957
3002.62	0.0139655
3012.26	0.0159427
3021.91	0.0165692
3031.55	0.0177309
3041.19	0.0180083
3050.83	0.0192571
3060.48	0.0213134
3070.12	0.0224656
3079.76	0.0238501
3089.4	0.0247966
3099.05	0.0263009
3108.69	0.028596
3118.33	0.0293301
3127.97	0.0300785
3137.61	0.034218
3147.26	0.0352838
3156.9	0.038
3166.54	0.0377748
3176.18	0.0409787
3185.83	0.0430298
3195.47	0.0451815
3205.11	0.0467252
3214.75	0.0482252
3224.4	0.0489984
3234.04	0.0507427
3243.68	0.0498338
3253.32	0.0522604
3262.97	0.0539869
3272.61	0.0550907
3282.25	0.0568718
3291.89	0.05715
3301.53	0.0591311
3311.18	0.060402
3320.82	0.0621005
3330.46	0.0639684
3340.1	0.0668832
3349.75	0.0670123
3359.39	0.0692358
3369.03	0.0692955
3378.67	0.0708886
3388.32	0.0717549
3397.96	0.070206
3407.6	0.0705359
3417.24	0.0701003
3426.89	0.0699762
3436.53	0.0702996
3446.17	0.0687415
3455.81	0.0687613
3465.45	0.0665561
3475.1	0.0660191
3484.74	0.06627
3494.38	0.0655237
3504.02	0.0636318
3513.67	0.062744
3523.31	0.0627776
3532.95	0.0616666
3542.59	0.0619296
3552.24	0.0611053
3561.88	0.0602336
3571.52	0.0585874
3581.16	0.0588331
3590.8	0.0588866
3600.45	0.0567177
3610.09	0.0534581
3619.73	0.0481001
3629.37	0.0425339
3639.02	0.0336801
3648.66	0.0245969
3658.3	0.015703
3667.94	0.0089762
3677.59	0.00538539
3687.23	0.0018278
3696.87	0.00138574
3706.51	-0.00147364
3716.16	0.000720799
3725.8	-0.00178086
3735.44	-0.00178066
3745.08	-0.00205002
3754.72	-0.00114503
3764.37	-0.00037848
3774.01	-0.00149604
3783.65	0.000253041
3793.29	-0.00192396
3802.94	-0.00196938
3812.58	-0.000728018
3822.22	-0.00133413
3831.86	-0.00265166
3841.51	9e-05
3851.15	-0.00301243
3860.79	-0.0024975
3870.43	-0.00280648
3880.07	-0.00281481
3889.72	-0.000950269
3899.36	-0.0022583
3909	-0.00433237
3918.64	-0.00104329
3928.29	-0.00186305
3937.93	-0.00334569
3947.57	-0.00481472
3957.21	-0.00120694
3966.86	0.000509148
3976.5	-0.000191907
3986.14	-0.00271585
3995.78	-0.00163442
