Measurement: Infrared, Infrared Data Processed
Mineral: Humite
Rruff sample: R040071
Ideal chemistry: Mg_7_(SiO_4_)_3_(F,OH)_2_
Locality: Tilly Foster mine, Brewster, Putnam County, New York, USA
Source: University of Arizona Mineral Museum
Description: Red crystals
Measured chemistry: (Mg_0.91_Fe_0.09_)_7_(Si_0.99_Ti_0.01_O_4_)_3_(F_0.76_(OH)_0.24_)_2_
x	intensity
399.193	0
408.835	0.225636
418.477	0.204815
428.12	0.195123
437.762	0.177054
447.404	0.168056
457.047	0.159394
466.689	0.170639
476.331	0.181525
485.974	0.166947
495.616	0.133898
505.258	0.110053
514.901	0.106199
524.543	0.139662
534.185	0.144886
543.828	0.118202
553.47	0.0937136
563.112	0.0671653
572.755	0.0513293
582.397	0.0510214
592.039	0.0703315
601.682	0.104046
611.324	0.110058
620.966	0.0927039
630.609	0.0668808
640.251	0.0438561
649.893	0.0297066
659.536	0.0241095
669.178	0.0216868
678.82	0.0241709
688.463	0.0216715
698.105	0.0231644
707.747	0.0266225
717.39	0.0331501
727.032	0.0449109
736.674	0.0704817
746.317	0.0892742
755.959	0.0855014
765.601	0.0742343
775.244	0.0521434
784.886	0.0407288
794.528	0.0475555
804.171	0.0680546
813.813	0.0995847
823.455	0.140423
833.098	0.196732
842.74	0.249254
852.382	0.221621
862.025	0.258213
871.667	0.298812
881.309	0.330502
890.952	0.290713
900.594	0.241768
910.236	0.203937
919.879	0.173809
929.521	0.148021
939.163	0.160224
948.806	0.181874
958.448	0.170538
968.09	0.14224
977.733	0.126041
987.375	0.117079
997.017	0.110327
1006.66	0.100349
1016.3	0.0839413
1025.94	0.0650902
1035.59	0.046017
1045.23	0.030279
1054.87	0.0190455
1064.51	0.0131097
1074.16	0.0120306
1083.8	0.0115176
1093.44	0.0103842
1103.08	0.00749062
1112.72	0.00521937
1122.37	0.00468137
1132.01	0.00426617
1141.65	0.00427818
1151.3	0.00441134
1160.94	0.0055471
1170.58	0.00576803
1180.22	0.00552948
1189.86	0.0047614
1199.51	0.004427
1209.15	0.00444094
1218.79	0.00480452
1228.43	0.00433322
1238.08	0.00473801
1247.72	0.00518021
1257.36	0.00674125
1267	0.00826666
1276.64	0.00723592
1286.29	0.00620157
1295.93	0.00629341
1305.57	0.00683289
1315.21	0.00768506
1324.86	0.00752243
1334.5	0.00817485
1344.14	0.0090051
1353.78	0.0101853
1363.43	0.0117512
1373.07	0.0145363
1382.71	0.0180077
1392.35	0.0232631
1401.99	0.0267927
1411.64	0.0288186
1421.28	0.0300377
1430.92	0.0312653
1440.57	0.0313647
1450.21	0.0300865
1459.85	0.0277811
1469.49	0.024784
1479.13	0.0214435
1488.78	0.0188048
1498.42	0.016479
1508.06	0.015014
1517.7	0.013648
1527.35	0.0130935
1536.99	0.0124583
1546.63	0.0122953
1556.27	0.0128478
1565.91	0.0133673
1575.56	0.0129873
1585.2	0.0133751
1594.84	0.0130977
1604.48	0.0127981
1614.13	0.0120339
1623.77	0.0112636
1633.41	0.0104925
1643.05	0.00993201
1652.7	0.00924717
1662.34	0.00864575
1671.98	0.00844417
1681.62	0.00754177
1691.27	0.00728909
1700.91	0.00742633
1710.55	0.00749402
1720.19	0.00756785
1729.84	0.00724097
1739.48	0.00754156
1749.12	0.00715684
1758.76	0.00708148
1768.4	0.00713335
1778.05	0.00639815
1787.69	0.0071014
1797.33	0.00718299
1806.97	0.0071865
1816.62	0.00668249
1826.26	0.00644757
1835.9	0.00681605
1845.54	0.00730464
1855.18	0.00778079
1864.83	0.00693368
1874.47	0.00682692
1884.11	0.0062477
1893.75	0.00622346
1903.4	0.00533524
1913.04	0.00626876
1922.68	0.00522489
1932.32	0.00478532
1941.97	0.0051761
1951.61	0.00509244
1961.25	0.00335108
1970.89	0.00353728
1980.54	0.00642764
1990.18	0.00521861
1999.82	0.00409544
2009.46	0.00301192
2019.11	0.00303979
2028.75	0.0049225
2038.39	0.00653356
2048.03	0.0054537
2057.67	0.0069169
2067.32	0.00667564
2076.96	0.00651545
2086.6	0.00740352
2096.24	0.00666057
2105.89	0.00891478
2115.53	0.00931285
2125.17	0.00947035
2134.81	0.0077014
2144.45	0.00808168
2154.1	0.00777136
2163.74	0.00857544
2173.38	0.00833015
2183.02	0.00977641
2192.67	0.00995285
2202.31	0.0106523
2211.95	0.00762765
2221.59	0.0108529
2231.24	0.0110111
2240.88	0.010487
2250.52	0.0101381
2260.16	0.0100924
2269.8	0.0126871
2279.45	0.0116798
2289.09	0.0122968
2298.73	0.0124849
2308.38	0.012619
2318.02	0.0128185
2327.66	0.0117188
2337.3	0.0119566
2346.94	0.0119011
2356.59	0.0114085
2366.23	0.0121197
2375.87	0.0114809
2385.51	0.0116079
2395.16	0.0115423
2404.8	0.0123035
2414.44	0.0125974
2424.08	0.0127508
2433.72	0.0124523
2443.37	0.0132505
2453.01	0.0134728
2462.65	0.0130701
2472.29	0.012894
2481.94	0.0124654
2491.58	0.0137402
2501.22	0.0120963
2510.86	0.0126105
2520.51	0.0131271
2530.15	0.0136469
2539.79	0.0127669
2549.43	0.0128225
2559.07	0.0127375
2568.72	0.014218
2578.36	0.0131666
2588	0.0137157
2597.64	0.0136908
2607.29	0.0144264
2616.93	0.01443
2626.57	0.0149144
2636.21	0.0135481
2645.86	0.0139059
2655.5	0.0142878
2665.14	0.0134877
2674.78	0.0133493
2684.43	0.0138061
2694.07	0.013901
2703.71	0.0139558
2713.35	0.0152424
2722.99	0.015534
2732.64	0.0146327
2742.28	0.0146279
2751.92	0.01516
2761.56	0.0145298
2771.21	0.0145961
2780.85	0.0145651
2790.49	0.01463
2800.13	0.0148642
2809.78	0.0150901
2819.42	0.015606
2829.06	0.0156795
2838.7	0.0155092
2848.34	0.0171153
2857.99	0.0175567
2867.63	0.0154807
2877.27	0.0170182
2886.91	0.0163855
2896.56	0.0157769
2906.2	0.0167965
2915.84	0.0166862
2925.48	0.0183011
2935.13	0.0181264
2944.77	0.0173977
2954.41	0.0174217
2964.05	0.0184202
2973.7	0.0164408
2983.34	0.0179264
2992.98	0.0172799
3002.62	0.0168526
3012.26	0.0184444
3021.91	0.0165077
3031.55	0.0182285
3041.19	0.017345
3050.83	0.0179549
3060.48	0.017108
3070.12	0.0179775
3079.76	0.018086
3089.4	0.0186641
3099.05	0.0182782
3108.69	0.0188461
3118.33	0.0193117
3127.97	0.0202883
3137.61	0.0202276
3147.26	0.0196608
3156.9	0.0200644
3166.54	0.0190428
3176.18	0.018672
3185.83	0.0210373
3195.47	0.0206002
3205.11	0.0195416
3214.75	0.0199266
3224.4	0.019565
3234.04	0.0198618
3243.68	0.0201288
3253.32	0.0208452
3262.97	0.0204583
3272.61	0.0199576
3282.25	0.0220573
3291.89	0.0228872
3301.53	0.0210597
3311.18	0.0226335
3320.82	0.021587
3330.46	0.0216152
3340.1	0.0231215
3349.75	0.0226089
3359.39	0.0228497
3369.03	0.0243051
3378.67	0.0234746
3388.32	0.0238719
3397.96	0.025499
3407.6	0.0231246
3417.24	0.0212653
3426.89	0.0220263
3436.53	0.0220455
3446.17	0.0226852
3455.81	0.0195925
3465.45	0.0242674
3475.1	0.0226186
3484.74	0.0240138
3494.38	0.0227837
3504.02	0.0221551
3513.67	0.0237986
3523.31	0.0211886
3532.95	0.0266214
3542.59	0.0291549
3552.24	0.0461147
3561.88	0.0513468
3571.52	0.0398394
3581.16	0.0227478
3590.8	0.0217699
3600.45	0.0177471
3610.09	0.0198602
3619.73	0.0200615
3629.37	0.0192595
3639.02	0.0212192
3648.66	0.0200526
3658.3	0.02131
3667.94	0.0250729
3677.59	0.0276425
3687.23	0.0302698
3696.87	0.0248884
3706.51	0.0202113
3716.16	0.0186841
3725.8	0.0179186
3735.44	0.0194234
3745.08	0.0183338
3754.72	0.0207064
3764.37	0.0199996
3774.01	0.0188122
3783.65	0.0189565
3793.29	0.0210839
3802.94	0.0197131
3812.58	0.020838
3822.22	0.020517
3831.86	0.019945
3841.51	0.0206688
3851.15	0.0205397
3860.79	0.0220039
3870.43	0.0218761
3880.07	0.0207099
3889.72	0.023185
3899.36	0.0216773
3909	0.020991
3918.64	0.0214766
3928.29	0.0225234
3937.93	0.020369
3947.57	0.0236384
3957.21	0.0226644
3966.86	0.0207501
3976.5	0.022266
3986.14	0.0220599
3995.78	0.0238301
