Measurement: Infrared, Infrared Data Processed
Mineral: Inderite
Rruff sample: R050195
Ideal chemistry: MgB_3_O_3_(OH)_5_5H_2_O
Locality: Boron, Kern County, California, USA
Source: Dave Bunk Minerals
Description: Colorless prismatic crystal
Measured chemistry: Mg_1.00_B_3.00_O_3_(OH)_5_Â·5H_2_O ; Mg measured, only
x	intensity
374.123	0.131461
383.765	0.14859
393.407	0.149766
403.05	0.165049
412.692	0.163052
422.334	0.162532
431.976	0.188051
441.619	0.17478
451.261	0.167448
460.904	0.152389
470.546	0.133163
480.188	0.143691
489.83	0.167863
499.473	0.139327
509.115	0.141636
518.758	0.143981
528.4	0.148226
538.042	0.154299
547.684	0.16566
557.327	0.184473
566.969	0.193247
576.611	0.177533
586.254	0.163309
595.896	0.135452
605.538	0.145252
615.181	0.156348
624.823	0.163523
634.466	0.169646
644.108	0.177812
653.75	0.177353
663.393	0.16958
673.035	0.15946
682.677	0.146676
692.319	0.13091
701.962	0.12372
711.604	0.12479
721.246	0.12639
730.889	0.135815
740.531	0.16705
750.173	0.174351
759.816	0.107044
769.458	0.103231
779.101	0.126306
788.743	0.170545
798.385	0.222509
808.028	0.152073
817.67	0.101324
827.312	0.108622
836.955	0.138505
846.597	0.20491
856.239	0.293653
865.881	0.295599
875.524	0.253812
885.166	0.219452
894.808	0.193453
904.451	0.159561
914.093	0.136102
923.736	0.135097
933.378	0.152283
943.02	0.187576
952.663	0.223649
962.305	0.240911
971.947	0.279894
981.59	0.315152
991.232	0.309421
1000.87	0.284871
1010.52	0.240876
1020.16	0.212559
1029.8	0.225627
1039.44	0.254357
1049.09	0.240968
1058.73	0.206721
1068.37	0.16815
1078.01	0.133587
1087.65	0.111578
1097.3	0.0933139
1106.94	0.0832977
1116.58	0.0931666
1126.22	0.115901
1135.87	0.125539
1145.51	0.110586
1155.15	0.0952872
1164.79	0.0929818
1174.44	0.102475
1184.08	0.101341
1193.72	0.0810367
1203.36	0.0612183
1213.01	0.0497681
1222.65	0.0457919
1232.29	0.048019
1241.93	0.0563926
1251.58	0.0712662
1261.22	0.0801367
1270.86	0.0969584
1280.5	0.108054
1290.14	0.0908074
1299.79	0.0714652
1309.43	0.0655089
1319.07	0.0733072
1328.71	0.104956
1338.36	0.173992
1348	0.201721
1357.64	0.164316
1367.28	0.118392
1376.92	0.112648
1386.57	0.155434
1396.21	0.201387
1405.85	0.177745
1415.49	0.129646
1425.14	0.0779191
1434.78	0.0632348
1444.42	0.0775877
1454.06	0.0618892
1463.71	0.0363563
1473.35	0.0261147
1482.99	0.0218435
1492.63	0.0196466
1502.28	0.0180227
1511.92	0.0175201
1521.56	0.0173408
1531.2	0.0166989
1540.85	0.0177015
1550.49	0.0172632
1560.13	0.0181983
1569.77	0.0183883
1579.41	0.0191494
1589.06	0.0203052
1598.7	0.0220359
1608.34	0.024418
1617.98	0.0285008
1627.63	0.0339652
1637.27	0.0436576
1646.91	0.053591
1656.55	0.051087
1666.19	0.0512382
1675.84	0.0624425
1685.48	0.0700524
1695.12	0.0626484
1704.77	0.0541566
1714.41	0.0447044
1724.05	0.0317318
1733.69	0.0214684
1743.33	0.0135317
1752.98	0.00960651
1762.62	0.00745849
1772.26	0.0068288
1781.9	0.0059941
1791.55	0.00576142
1801.19	0.00515758
1810.83	0.00493379
1820.47	0.00488059
1830.12	0.00432396
1839.76	0.00425744
1849.4	0.00390344
1859.04	0.00391067
1868.68	0.00327341
1878.33	0.00269825
1887.97	0.00300492
1897.61	0.0019838
1907.25	0.00218937
1916.9	0.00175762
1926.54	0.00112781
1936.18	0.00132951
1945.82	0.000485992
1955.46	0.000780346
1965.11	-0.00088264
1974.75	0.000164699
1984.39	0.00216242
1994.04	0.00174292
2003.68	0.000715021
2013.32	0.00197474
2022.96	0.00127538
2032.6	0.0025929
2042.25	0.00372289
2051.89	0.00519522
2061.53	0.00365292
2071.17	0.00374493
2080.82	0.00484105
2090.46	0.00456977
2100.1	0.00533756
2109.74	0.00547319
2119.39	0.00446643
2129.03	0.00484801
2138.67	0.00612903
2148.31	0.00535204
2157.95	0.00631474
2167.6	0.00774555
2177.24	0.00977516
2186.88	0.00938179
2196.52	0.00951812
2206.17	0.00991027
2215.81	0.00982376
2225.45	0.00855664
2235.09	0.0118101
2244.74	0.0118008
2254.38	0.00991994
2264.02	0.0102407
2273.66	0.0113794
2283.3	0.0116332
2292.95	0.0129317
2302.59	0.0128879
2312.23	0.0128768
2321.87	0.0146006
2331.52	0.0141113
2341.16	0.0139191
2350.8	0.0134391
2360.44	0.0144175
2370.09	0.0132039
2379.73	0.0125988
2389.37	0.0126131
2399.01	0.0127396
2408.66	0.0121313
2418.3	0.012454
2427.94	0.0120422
2437.58	0.0125391
2447.22	0.0123035
2456.87	0.0122761
2466.51	0.0120415
2476.15	0.0120467
2485.79	0.012763
2495.44	0.0112873
2505.08	0.0119593
2514.72	0.0121902
2524.36	0.0120591
2534.01	0.0121249
2543.65	0.0121705
2553.29	0.0116225
2562.93	0.0113783
2572.57	0.0122072
2582.22	0.0121563
2591.86	0.0125021
2601.5	0.0135055
2611.14	0.0140079
2620.79	0.0139348
2630.43	0.0151178
2640.07	0.0155735
2649.71	0.0161899
2659.36	0.0159438
2669	0.0162349
2678.64	0.0170039
2688.28	0.0177354
2697.93	0.0190467
2707.57	0.0207457
2717.21	0.0223248
2726.85	0.0242186
2736.49	0.0257236
2746.14	0.0267448
2755.78	0.0280079
2765.42	0.0293465
2775.06	0.0303407
2784.71	0.0313784
2794.35	0.032854
2803.99	0.033834
2813.63	0.0355175
2823.28	0.0381501
2832.92	0.0402704
2842.56	0.0433937
2852.2	0.0457923
2861.84	0.0508339
2871.49	0.0553621
2881.13	0.0598585
2890.77	0.0647419
2900.41	0.0701932
2910.06	0.0762111
2919.7	0.0814014
2929.34	0.0864853
2938.98	0.0905132
2948.62	0.0936581
2958.27	0.0961246
2967.91	0.0968909
2977.55	0.0975669
2987.2	0.100334
2996.84	0.102693
3006.48	0.105552
3016.12	0.108771
3025.76	0.112893
3035.41	0.117542
3045.05	0.122482
3054.69	0.127322
3064.33	0.129883
3073.98	0.134456
3083.62	0.137719
3093.26	0.141891
3102.9	0.146379
3112.55	0.153164
3122.19	0.16016
3131.83	0.169032
3141.47	0.178801
3151.11	0.188778
3160.76	0.199474
3170.4	0.210733
3180.04	0.22025
3189.68	0.226545
3199.33	0.229647
3208.97	0.232059
3218.61	0.233929
3228.25	0.235393
3237.9	0.23764
3247.54	0.240343
3257.18	0.24352
3266.82	0.241477
3276.47	0.235699
3286.11	0.229676
3295.75	0.223009
3305.39	0.21586
3315.03	0.210066
3324.68	0.208191
3334.32	0.206683
3343.96	0.204169
3353.6	0.200566
3363.25	0.193458
3372.89	0.187184
3382.53	0.179384
3392.17	0.172859
3401.82	0.168881
3411.46	0.168492
3421.1	0.171418
3430.74	0.174838
3440.39	0.174372
3450.03	0.167769
3459.67	0.15676
3469.31	0.149274
3478.95	0.14093
3488.6	0.122178
3498.24	0.0978879
3507.88	0.0778283
3517.52	0.0641084
3527.17	0.0532019
3536.81	0.0455188
3546.45	0.0431492
3556.09	0.0449093
3565.74	0.0575524
3575.38	0.0594717
3585.02	0.0429072
3594.66	0.0261437
3604.3	0.0206371
3613.95	0.0461029
3623.59	0.024553
3633.23	-0.00369707
3642.87	-0.00753934
3652.52	-0.00955894
3662.16	-0.0113102
3671.8	-0.0122384
3681.44	-0.0133187
3691.09	-0.0115207
3700.73	-0.0115439
3710.37	-0.0122477
3720.01	-0.0127659
3729.66	-0.0115719
3739.3	-0.012677
3748.94	-0.0108798
3758.58	-0.0112478
3768.22	-0.0111195
3777.87	-0.013861
3787.51	-0.0124243
3797.15	-0.0115653
3806.79	-0.0114196
3816.44	-0.0116522
3826.08	-0.0116552
3835.72	-0.0125437
3845.36	-0.012246
3855.01	-0.0119843
3864.65	-0.0125082
3874.29	-0.0121519
3883.93	-0.0123778
3893.57	-0.0116002
3903.22	-0.0116636
3912.86	-0.0113147
3922.5	-0.0105304
3932.14	-0.0105865
3941.79	-0.0116171
3951.43	-0.0121307
3961.07	-0.0105753
3970.71	-0.0121196
3980.36	-0.0119057
3990	-0.0106497
3999.64	-0.01124
