Measurement: Infrared, Infrared Data Processed
Mineral: Inesite
Rruff sample: R090030
Ideal chemistry: Ca_2_Mn^2+^_7_Si_10_O_28_(OH)_2_5H_2_O
Locality: Hale Creek Mine, Mad River Ridge, Hale Creek, Trinity County, California, USA
Source: James Shigley
Description: Clusters of pink slender chisel-shaped laths
x	intensity
374.123	0.144179
383.765	0.155804
393.407	0.158252
403.05	0.172387
412.692	0.207238
422.334	0.237905
431.976	0.249928
441.619	0.269924
451.261	0.285618
460.904	0.249264
470.546	0.20497
480.188	0.167995
489.83	0.158267
499.473	0.150895
509.115	0.121432
518.758	0.109871
528.4	0.114622
538.042	0.127605
547.684	0.131456
557.327	0.116581
566.969	0.081363
576.611	0.0706037
586.254	0.073457
595.896	0.0844131
605.538	0.102053
615.181	0.100281
624.823	0.0919987
634.466	0.0808782
644.108	0.0716709
653.75	0.0788788
663.393	0.0804843
673.035	0.076352
682.677	0.0628966
692.319	0.0516088
701.962	0.0433169
711.604	0.0447815
721.246	0.0549528
730.889	0.0509236
740.531	0.0457979
750.173	0.0446572
759.816	0.0467343
769.458	0.0549066
779.101	0.0557548
788.743	0.0467979
798.385	0.0453512
808.028	0.0484414
817.67	0.0529401
827.312	0.0596179
836.955	0.0688059
846.597	0.0820853
856.239	0.101216
865.881	0.130136
875.524	0.175545
885.166	0.238253
894.808	0.322307
904.451	0.369676
914.093	0.449621
923.736	0.530509
933.378	0.498072
943.02	0.403768
952.663	0.35853
962.305	0.323445
971.947	0.275911
981.59	0.257163
991.232	0.280053
1000.87	0.245614
1010.52	0.188494
1020.16	0.156063
1029.8	0.135626
1039.44	0.168255
1049.09	0.16572
1058.73	0.143924
1068.37	0.127344
1078.01	0.143439
1087.65	0.13866
1097.3	0.096643
1106.94	0.0589708
1116.58	0.0341053
1126.22	0.0235776
1135.87	0.019166
1145.51	0.0169649
1155.15	0.0155007
1164.79	0.0141566
1174.44	0.0130032
1184.08	0.0120896
1193.72	0.0109749
1203.36	0.00999441
1213.01	0.00933399
1222.65	0.0085336
1232.29	0.00802397
1241.93	0.00724859
1251.58	0.00661675
1261.22	0.00620397
1270.86	0.005741
1280.5	0.00565819
1290.14	0.00547162
1299.79	0.00549172
1309.43	0.00555761
1319.07	0.00605048
1328.71	0.00598056
1338.36	0.00633307
1348	0.00641821
1357.64	0.00673183
1367.28	0.00696356
1376.92	0.00745039
1386.57	0.00801803
1396.21	0.00873021
1405.85	0.00959885
1415.49	0.0105317
1425.14	0.0114602
1434.78	0.0122055
1444.42	0.0123875
1454.06	0.0129772
1463.71	0.0129606
1473.35	0.0131148
1482.99	0.0122029
1492.63	0.0119039
1502.28	0.0112507
1511.92	0.0110053
1521.56	0.0108284
1531.2	0.0104251
1540.85	0.0110244
1550.49	0.0105168
1560.13	0.0118107
1569.77	0.0118592
1579.41	0.012997
1589.06	0.0143336
1598.7	0.0174844
1608.34	0.0203664
1617.98	0.0227022
1627.63	0.028903
1637.27	0.0364826
1646.91	0.0336927
1656.55	0.0266322
1666.19	0.0246792
1675.84	0.0208401
1685.48	0.015361
1695.12	0.011548
1704.77	0.00898372
1714.41	0.00806677
1724.05	0.00734473
1733.69	0.00732745
1743.33	0.00557864
1752.98	0.00531354
1762.62	0.00492802
1772.26	0.00532469
1781.9	0.00496839
1791.55	0.00499139
1801.19	0.00493711
1810.83	0.00474023
1820.47	0.00445058
1830.12	0.00433799
1839.76	0.00423582
1849.4	0.00405155
1859.04	0.00374927
1868.68	0.00412554
1878.33	0.00388114
1887.97	0.0039863
1897.61	0.00343424
1907.25	0.00272756
1916.9	0.00330875
1926.54	0.00193801
1936.18	0.00256408
1945.82	0.00248289
1955.46	0.00102239
1965.11	0.00167365
1974.75	0.000861445
1984.39	0.0023339
1994.04	0.00261796
2003.68	0.0015309
2013.32	0.00112691
2022.96	0.0025145
2032.6	0.00232982
2042.25	0.00447818
2051.89	0.00559891
2061.53	0.0041807
2071.17	0.00480305
2080.82	0.00503657
2090.46	0.00433881
2100.1	0.00489092
2109.74	0.00576788
2119.39	0.00509688
2129.03	0.00342734
2138.67	0.00497511
2148.31	0.00328564
2157.95	0.00228476
2167.6	0.00617052
2177.24	0.00665918
2186.88	0.00622505
2196.52	0.00695611
2206.17	0.00795491
2215.81	0.00830303
2225.45	0.00957223
2235.09	0.00942277
2244.74	0.00890609
2254.38	0.00879804
2264.02	0.00967448
2273.66	0.00979892
2283.3	0.0106314
2292.95	0.0100941
2302.59	0.00982227
2312.23	0.00982533
2321.87	0.0115717
2331.52	0.011056
2341.16	0.0106356
2350.8	0.0100901
2360.44	0.0113195
2370.09	0.0106836
2379.73	0.00901287
2389.37	0.0092477
2399.01	0.00921108
2408.66	0.00986215
2418.3	0.00904264
2427.94	0.0100073
2437.58	0.00965304
2447.22	0.00991415
2456.87	0.00979784
2466.51	0.00999277
2476.15	0.00993942
2485.79	0.00903943
2495.44	0.00992228
2505.08	0.0105212
2514.72	0.0097131
2524.36	0.0103243
2534.01	0.0101852
2543.65	0.0102671
2553.29	0.0106609
2562.93	0.0107972
2572.57	0.0108953
2582.22	0.011071
2591.86	0.0109463
2601.5	0.0113838
2611.14	0.0115052
2620.79	0.0117149
2630.43	0.0118977
2640.07	0.0118871
2649.71	0.0119455
2659.36	0.0117476
2669	0.0111535
2678.64	0.011756
2688.28	0.0117293
2697.93	0.011697
2707.57	0.0119252
2717.21	0.0121943
2726.85	0.0121176
2736.49	0.0127049
2746.14	0.0128939
2755.78	0.0128069
2765.42	0.0130521
2775.06	0.012997
2784.71	0.0132951
2794.35	0.0134818
2803.99	0.0138028
2813.63	0.0141737
2823.28	0.0138128
2832.92	0.0147765
2842.56	0.0155321
2852.2	0.0157825
2861.84	0.0157977
2871.49	0.016154
2881.13	0.0167167
2890.77	0.0171712
2900.41	0.0174872
2910.06	0.0179021
2919.7	0.0190811
2929.34	0.0196008
2938.98	0.0185532
2948.62	0.0187265
2958.27	0.0202068
2967.91	0.0190177
2977.55	0.0189634
2987.2	0.0187284
2996.84	0.0193256
3006.48	0.0201431
3016.12	0.0198018
3025.76	0.0208386
3035.41	0.0212906
3045.05	0.0216384
3054.69	0.0222293
3064.33	0.0229127
3073.98	0.0238843
3083.62	0.0244835
3093.26	0.0248193
3102.9	0.0255571
3112.55	0.0266777
3122.19	0.0264633
3131.83	0.0276797
3141.47	0.0290387
3151.11	0.0285821
3160.76	0.0297758
3170.4	0.0314451
3180.04	0.0318947
3189.68	0.0328564
3199.33	0.0339471
3208.97	0.0353372
3218.61	0.0361612
3228.25	0.0372755
3237.9	0.037898
3247.54	0.0381376
3257.18	0.0387342
3266.82	0.0383343
3276.47	0.0393051
3286.11	0.0409298
3295.75	0.0416231
3305.39	0.0425846
3315.03	0.0437479
3324.68	0.0456862
3334.32	0.047328
3343.96	0.0515581
3353.6	0.0557374
3363.25	0.0587984
3372.89	0.0605403
3382.53	0.0624343
3392.17	0.0639003
3401.82	0.0650333
3411.46	0.0646433
3421.1	0.0653139
3430.74	0.0648176
3440.39	0.0649608
3450.03	0.0657702
3459.67	0.0639916
3469.31	0.0620326
3478.95	0.0598972
3488.6	0.0570409
3498.24	0.0553687
3507.88	0.0494078
3517.52	0.0445625
3527.17	0.0396799
3536.81	0.0364672
3546.45	0.034507
3556.09	0.0294486
3565.74	0.026696
3575.38	0.0264764
3585.02	0.0293266
3594.66	0.0311574
3604.3	0.0313411
3613.95	0.0316519
3623.59	0.0334291
3633.23	0.0353756
3642.87	0.0241933
3652.52	0.010898
3662.16	0.00780394
3671.8	0.00847688
3681.44	0.00855297
3691.09	0.0085739
3700.73	0.00750086
3710.37	0.00965306
3720.01	0.00767456
3729.66	0.00871766
3739.3	0.00875166
3748.94	0.0102756
3758.58	0.00840005
3768.22	0.00789672
3777.87	0.00709879
3787.51	0.00763552
3797.15	0.00778553
3806.79	0.0092919
3816.44	0.0095427
3826.08	0.00793172
3835.72	0.00956548
3845.36	0.00855814
3855.01	0.00943103
3864.65	0.00848458
3874.29	0.0087442
3883.93	0.00939141
3893.57	0.00858984
3903.22	0.00805849
3912.86	0.00868894
3922.5	0.00881813
3932.14	0.0078898
3941.79	0.00717583
3951.43	0.00697159
3961.07	0.00803631
3970.71	0.00887163
3980.36	0.00848717
3990	0.00891538
3999.64	0.00753189
