Measurement: Infrared, Infrared Data Processed
Mineral: Jadeite
Rruff sample: R050220
Ideal chemistry: NaAlSi_2_O_6_
Locality: Clear Creek, San Benito County, California, USA
Source: Hatt Yoder
Description: Aggregate of colorless bladed crystals
Measured chemistry: Na_1.00_Al_1.00_(Si_0.99_Al_0.01_)_2_O_6_
x	intensity
399.193	0
408.835	0.185985
418.477	0.247756
428.12	0.286642
437.762	0.270543
447.404	0.259482
457.047	0.281362
466.689	0.26645
476.331	0.237775
485.974	0.221787
495.616	0.217544
505.258	0.206418
514.901	0.18932
524.543	0.171599
534.185	0.148758
543.828	0.118343
553.47	0.102899
563.112	0.123407
572.755	0.164012
582.397	0.181423
592.039	0.162459
601.682	0.127478
611.324	0.0952848
620.966	0.065362
630.609	0.0417903
640.251	0.0329066
649.893	0.0349447
659.536	0.0525764
669.178	0.0525996
678.82	0.0339643
688.463	0.0295368
698.105	0.0294537
707.747	0.0307303
717.39	0.0327428
727.032	0.0357806
736.674	0.0431834
746.317	0.0641169
755.959	0.0449732
765.601	0.0411399
775.244	0.042515
784.886	0.0443298
794.528	0.0482667
804.171	0.055227
813.813	0.0652842
823.455	0.0802334
833.098	0.102251
842.74	0.13859
852.382	0.177297
862.025	0.159125
871.667	0.147257
881.309	0.165644
890.952	0.189977
900.594	0.210082
910.236	0.223809
919.879	0.228795
929.521	0.222479
939.163	0.206593
948.806	0.190358
958.448	0.18562
968.09	0.202364
977.733	0.239088
987.375	0.271172
997.017	0.266506
1006.66	0.249151
1016.3	0.232518
1025.94	0.224475
1035.59	0.226928
1045.23	0.231263
1054.87	0.200149
1064.51	0.197591
1074.16	0.170244
1083.8	0.141603
1093.44	0.117713
1103.08	0.10137
1112.72	0.0916827
1122.37	0.0834628
1132.01	0.0741196
1141.65	0.0626614
1151.3	0.0483246
1160.94	0.0343284
1170.58	0.0228677
1180.22	0.0146689
1189.86	0.00974831
1199.51	0.00726992
1209.15	0.00513623
1218.79	0.00420721
1228.43	0.00343943
1238.08	0.00316019
1247.72	0.00248769
1257.36	0.0022592
1267	0.00176692
1276.64	0.00230317
1286.29	0.00151506
1295.93	0.00193473
1305.57	0.00180308
1315.21	0.00207848
1324.86	0.00209432
1334.5	0.00173515
1344.14	0.00155226
1353.78	0.00180631
1363.43	0.00171228
1373.07	0.00189845
1382.71	0.00229041
1392.35	0.00250487
1401.99	0.00283169
1411.64	0.00337716
1421.28	0.00356945
1430.92	0.00401081
1440.57	0.00431404
1450.21	0.00444188
1459.85	0.00415667
1469.49	0.00467271
1479.13	0.00449406
1488.78	0.00400862
1498.42	0.00399818
1508.06	0.00357312
1517.7	0.00354616
1527.35	0.00373464
1536.99	0.00358681
1546.63	0.00386552
1556.27	0.00385309
1565.91	0.00431512
1575.56	0.00394905
1585.2	0.0041393
1594.84	0.00454147
1604.48	0.00466005
1614.13	0.00522462
1623.77	0.00642297
1633.41	0.00746554
1643.05	0.00674196
1652.7	0.00593192
1662.34	0.00585451
1671.98	0.00535771
1681.62	0.00485515
1691.27	0.00453888
1700.91	0.00436049
1710.55	0.00410315
1720.19	0.00429406
1729.84	0.0041046
1739.48	0.00421278
1749.12	0.00394921
1758.76	0.00390039
1768.4	0.00397353
1778.05	0.00388305
1787.69	0.00372125
1797.33	0.00329007
1806.97	0.00391431
1816.62	0.00279711
1826.26	0.00375419
1835.9	0.00285178
1845.54	0.00244232
1855.18	0.00281843
1864.83	0.00212878
1874.47	0.0029466
1884.11	0.00229181
1893.75	0.00219572
1903.4	0.00178801
1913.04	0.00289278
1922.68	0.00094998
1932.32	0.000366907
1941.97	0.000214929
1951.61	0.000110126
1961.25	-0.00308424
1970.89	-0.00379726
1980.54	0.000725636
1990.18	-0.00190045
1999.82	-0.00299402
2009.46	-0.00306532
2019.11	-0.00219429
2028.75	-0.00452984
2038.39	-0.00121645
2048.03	0.00177046
2057.67	1.85375e-06
2067.32	-0.00053104
2076.96	0.00162347
2086.6	0.00114318
2096.24	0.00102998
2105.89	0.00154109
2115.53	0.00179297
2125.17	-0.000986818
2134.81	-0.00309537
2144.45	-0.00207344
2154.1	-0.00425422
2163.74	0.00083384
2173.38	0.000541794
2183.02	0.00118407
2192.67	0.00201942
2202.31	0.00430408
2211.95	0.00404298
2221.59	0.0046538
2231.24	0.0055662
2240.88	0.00388171
2250.52	0.00382964
2260.16	0.005487
2269.8	0.00556353
2279.45	0.00688393
2289.09	0.0070958
2298.73	0.00737758
2308.38	0.00865787
2318.02	0.00806253
2327.66	0.00715059
2337.3	0.007787
2346.94	0.00776844
2356.59	0.00784104
2366.23	0.00682858
2375.87	0.00702614
2385.51	0.00642268
2395.16	0.00658567
2404.8	0.00844148
2414.44	0.00713137
2424.08	0.00781734
2433.72	0.00754227
2443.37	0.00900475
2453.01	0.00862021
2462.65	0.00916123
2472.29	0.00773305
2481.94	0.00904302
2491.58	0.00737575
2501.22	0.0087227
2510.86	0.00861013
2520.51	0.00801561
2530.15	0.00867939
2539.79	0.00867986
2549.43	0.00936088
2559.07	0.00926662
2568.72	0.0101064
2578.36	0.00842124
2588	0.00964394
2597.64	0.010017
2607.29	0.0100754
2616.93	0.00916888
2626.57	0.00950969
2636.21	0.00977957
2645.86	0.0100637
2655.5	0.00955853
2665.14	0.0092535
2674.78	0.00882496
2684.43	0.00855249
2694.07	0.00819264
2703.71	0.00823635
2713.35	0.00810289
2722.99	0.00949999
2732.64	0.00826713
2742.28	0.00843813
2751.92	0.00907321
2761.56	0.0101423
2771.21	0.0088882
2780.85	0.00938813
2790.49	0.00885977
2800.13	0.00974193
2809.78	0.00919645
2819.42	0.00936074
2829.06	0.00981118
2838.7	0.00945921
2848.34	0.00911223
2857.99	0.00852139
2867.63	0.00890902
2877.27	0.00896234
2886.91	0.0097157
2896.56	0.00869765
2906.2	0.00968203
2915.84	0.00874896
2925.48	0.00859986
2935.13	0.00895048
2944.77	0.00962331
2954.41	0.00949383
2964.05	0.00997112
2973.7	0.0111876
2983.34	0.010065
2992.98	0.0116944
3002.62	0.0103344
3012.26	0.0109765
3021.91	0.00988911
3031.55	0.0110852
3041.19	0.0114834
3050.83	0.0110214
3060.48	0.0119174
3070.12	0.010535
3079.76	0.0127368
3089.4	0.00988414
3099.05	0.0124695
3108.69	0.0107496
3118.33	0.0112676
3127.97	0.01225
3137.61	0.0122583
3147.26	0.01279
3156.9	0.0146064
3166.54	0.0125582
3176.18	0.0140815
3185.83	0.0123242
3195.47	0.0147929
3205.11	0.0127357
3214.75	0.0130338
3224.4	0.0142555
3234.04	0.0143862
3243.68	0.012983
3253.32	0.0125154
3262.97	0.0154352
3272.61	0.0146949
3282.25	0.0147981
3291.89	0.0141629
3301.53	0.0156915
3311.18	0.0150121
3320.82	0.0146487
3330.46	0.0146394
3340.1	0.016238
3349.75	0.0152016
3359.39	0.016795
3369.03	0.0167751
3378.67	0.0164005
3388.32	0.0172324
3397.96	0.0167172
3407.6	0.0168177
3417.24	0.0173925
3426.89	0.0159275
3436.53	0.0172995
3446.17	0.0177063
3455.81	0.0171992
3465.45	0.0171547
3475.1	0.0164697
3484.74	0.015875
3494.38	0.0163431
3504.02	0.0169041
3513.67	0.0177023
3523.31	0.0154982
3532.95	0.0159796
3542.59	0.0162603
3552.24	0.0159628
3561.88	0.0151877
3571.52	0.0146328
3581.16	0.0152497
3590.8	0.0128205
3600.45	0.0164885
3610.09	0.0165723
3619.73	0.0163595
3629.37	0.0167707
3639.02	0.0125917
3648.66	0.0137123
3658.3	0.0122913
3667.94	0.0120367
3677.59	0.0130862
3687.23	0.0116018
3696.87	0.00936255
3706.51	0.0124382
3716.16	0.0123958
3725.8	0.0119889
3735.44	0.00868367
3745.08	0.0100047
3754.72	0.0129023
3764.37	0.00994895
3774.01	0.0104471
3783.65	0.0132125
3793.29	0.0131293
3802.94	0.0109369
3812.58	0.0137064
3822.22	0.0135851
3831.86	0.0101849
3841.51	0.0123897
3851.15	0.0134087
3860.79	0.0102496
3870.43	0.0110042
3880.07	0.0133387
3889.72	0.0147708
3899.36	0.0127725
3909	0.0123489
3918.64	0.0115597
3928.29	0.0109087
3937.93	0.00940526
3947.57	0.0127194
3957.21	0.00917352
3966.86	0.0120982
3976.5	0.0130174
3986.14	0.0118019
3995.78	0.0104535
