Measurement: Infrared, Infrared Data Processed
Mineral: Jamesonite
Rruff sample: R050432
Ideal chemistry: Pb^2+^_4_Fe^2+^Sb^3+^_6_S^2-^_14_
Locality: San Jose mine, Oruro District, Bolivia
Source: University of Arizona Mineral Museum
Description: Grayish black coarse acicular crystals
Measured chemistry: Pb_4.00_Fe_1.00_(Sb_5.95_As_0.05_)_Î£=6_S_14.00_
x	intensity
374.123	0.115981
383.765	0.130133
393.407	0.157743
403.05	0.17819
412.692	0.196972
422.334	0.204003
431.976	0.212121
441.619	0.226372
451.261	0.241202
460.904	0.250323
470.546	0.257966
480.188	0.265965
489.83	0.275121
499.473	0.286386
509.115	0.296929
518.758	0.305782
528.4	0.312961
538.042	0.320996
547.684	0.32912
557.327	0.338526
566.969	0.345305
576.611	0.351257
586.254	0.357664
595.896	0.363119
605.538	0.366865
615.181	0.368976
624.823	0.37269
634.466	0.376436
644.108	0.378228
653.75	0.381058
663.393	0.385241
673.035	0.387793
682.677	0.393249
692.319	0.396947
701.962	0.40122
711.604	0.406549
721.246	0.410075
730.889	0.415253
740.531	0.420354
750.173	0.423984
759.816	0.427699
769.458	0.431844
779.101	0.436379
788.743	0.440258
798.385	0.444919
808.028	0.449598
817.67	0.453273
827.312	0.458485
836.955	0.461281
846.597	0.46718
856.239	0.471695
865.881	0.477031
875.524	0.48327
885.166	0.488505
894.808	0.495032
904.451	0.500048
914.093	0.505762
923.736	0.511342
933.378	0.517785
943.02	0.523765
952.663	0.530226
962.305	0.536331
971.947	0.541586
981.59	0.546916
991.232	0.55167
1000.87	0.556581
1010.52	0.563543
1020.16	0.567661
1029.8	0.571661
1039.44	0.575363
1049.09	0.579335
1058.73	0.582844
1068.37	0.586622
1078.01	0.589867
1087.65	0.592938
1097.3	0.596155
1106.94	0.599522
1116.58	0.602563
1126.22	0.605908
1135.87	0.61088
1145.51	0.617058
1155.15	0.618865
1164.79	0.620177
1174.44	0.622454
1184.08	0.625465
1193.72	0.62975
1203.36	0.633533
1213.01	0.636309
1222.65	0.639234
1232.29	0.642257
1241.93	0.645582
1251.58	0.648334
1261.22	0.6509
1270.86	0.654449
1280.5	0.658086
1290.14	0.662232
1299.79	0.666699
1309.43	0.670524
1319.07	0.674102
1328.71	0.678196
1338.36	0.682407
1348	0.686778
1357.64	0.69068
1367.28	0.695481
1376.92	0.700149
1386.57	0.703089
1396.21	0.70717
1405.85	0.711091
1415.49	0.714868
1425.14	0.718229
1434.78	0.72204
1444.42	0.726051
1454.06	0.730145
1463.71	0.732351
1473.35	0.732299
1482.99	0.735186
1492.63	0.738863
1502.28	0.74346
1511.92	0.747885
1521.56	0.751791
1531.2	0.755855
1540.85	0.75927
1550.49	0.762633
1560.13	0.76545
1569.77	0.768357
1579.41	0.771941
1589.06	0.775381
1598.7	0.778845
1608.34	0.782905
1617.98	0.786029
1627.63	0.78954
1637.27	0.792301
1646.91	0.79607
1656.55	0.798327
1666.19	0.800415
1675.84	0.80286
1685.48	0.805632
1695.12	0.808018
1704.77	0.81103
1714.41	0.813969
1724.05	0.817269
1733.69	0.819267
1743.33	0.820387
1752.98	0.821753
1762.62	0.824308
1772.26	0.827368
1781.9	0.829863
1791.55	0.831919
1801.19	0.834601
1810.83	0.837138
1820.47	0.839662
1830.12	0.842483
1839.76	0.843966
1849.4	0.845668
1859.04	0.849668
1868.68	0.851456
1878.33	0.853102
1887.97	0.857066
1897.61	0.860127
1907.25	0.86382
1916.9	0.866634
1926.54	0.86749
1936.18	0.87162
1945.82	0.872652
1955.46	0.873588
1965.11	0.879897
1974.75	0.879952
1984.39	0.885641
1994.04	0.889843
2003.68	0.887642
2013.32	0.896177
2022.96	0.895145
2032.6	0.904518
2042.25	0.902256
2051.89	0.906932
2061.53	0.906262
2071.17	0.913612
2080.82	0.916407
2090.46	0.91865
2100.1	0.924592
2109.74	0.924426
2119.39	0.927597
2129.03	0.9312
2138.67	0.932145
2148.31	0.934493
2157.95	0.940883
2167.6	0.940001
2177.24	0.940638
2186.88	0.945425
2196.52	0.949152
2206.17	0.949011
2215.81	0.951814
2225.45	0.955782
2235.09	0.960093
2244.74	0.962023
2254.38	0.964229
2264.02	0.96465
2273.66	0.971058
2283.3	0.973382
2292.95	0.973876
2302.59	0.978545
2312.23	0.977996
2321.87	0.980786
2331.52	0.983277
2341.16	0.985675
2350.8	0.988093
2360.44	0.990105
2370.09	0.993752
2379.73	0.995969
2389.37	0.999194
2399.01	0.99969
2408.66	1.00285
2418.3	1.0044
2427.94	1.00645
2437.58	1.00797
2447.22	1.0109
2456.87	1.01247
2466.51	1.01521
2476.15	1.01747
2485.79	1.02029
2495.44	1.02354
2505.08	1.02506
2514.72	1.0278
2524.36	1.02885
2534.01	1.0321
2543.65	1.03451
2553.29	1.0372
2562.93	1.04002
2572.57	1.04129
2582.22	1.04402
2591.86	1.04707
2601.5	1.05043
2611.14	1.05326
2620.79	1.05575
2630.43	1.06
2640.07	1.06238
2649.71	1.06527
2659.36	1.06826
2669	1.06957
2678.64	1.07246
2688.28	1.07445
2697.93	1.07664
2707.57	1.07863
2717.21	1.08096
2726.85	1.08359
2736.49	1.08549
2746.14	1.08692
2755.78	1.08996
2765.42	1.09195
2775.06	1.09344
2784.71	1.09649
2794.35	1.09909
2803.99	1.10172
2813.63	1.10331
2823.28	1.10638
2832.92	1.11079
2842.56	1.11513
2852.2	1.11651
2861.84	1.11649
2871.49	1.11892
2881.13	1.12234
2890.77	1.12548
2900.41	1.12837
2910.06	1.13198
2919.7	1.13166
2929.34	1.13087
2938.98	1.12871
2948.62	1.1321
2958.27	1.13223
2967.91	1.13179
2977.55	1.13212
2987.2	1.13424
2996.84	1.1367
3006.48	1.13975
3016.12	1.14143
3025.76	1.14272
3035.41	1.14503
3045.05	1.14743
3054.69	1.14983
3064.33	1.15115
3073.98	1.15435
3083.62	1.15566
3093.26	1.15779
3102.9	1.1603
3112.55	1.16278
3122.19	1.1644
3131.83	1.16683
3141.47	1.16891
3151.11	1.17139
3160.76	1.17241
3170.4	1.17466
3180.04	1.17668
3189.68	1.17913
3199.33	1.18014
3208.97	1.18235
3218.61	1.18367
3228.25	1.18629
3237.9	1.1881
3247.54	1.18874
3257.18	1.19209
3266.82	1.19394
3276.47	1.19565
3286.11	1.1981
3295.75	1.19926
3305.39	1.20019
3315.03	1.20283
3324.68	1.20416
3334.32	1.2064
3343.96	1.20888
3353.6	1.20845
3363.25	1.20956
3372.89	1.21124
3382.53	1.21424
3392.17	1.21529
3401.82	1.21509
3411.46	1.21701
3421.1	1.21971
3430.74	1.22105
3440.39	1.22172
3450.03	1.22347
3459.67	1.22438
3469.31	1.22679
3478.95	1.22801
3488.6	1.22776
3498.24	1.23011
3507.88	1.23115
3517.52	1.23097
3527.17	1.23301
3536.81	1.235
3546.45	1.23606
3556.09	1.23684
3565.74	1.23711
3575.38	1.24084
3585.02	1.24142
3594.66	1.24478
3604.3	1.24511
3613.95	1.24826
3623.59	1.24937
3633.23	1.24977
3642.87	1.25105
3652.52	1.25379
3662.16	1.25645
3671.8	1.25771
3681.44	1.25923
3691.09	1.25995
3700.73	1.26289
3710.37	1.26515
3720.01	1.26861
3729.66	1.26995
3739.3	1.27263
3748.94	1.27238
3758.58	1.27351
3768.22	1.27541
3777.87	1.27676
3787.51	1.27982
3797.15	1.28032
3806.79	1.28291
3816.44	1.28294
3826.08	1.28394
3835.72	1.28872
3845.36	1.28754
3855.01	1.29043
3864.65	1.29135
3874.29	1.29355
3883.93	1.29289
3893.57	1.29564
3903.22	1.29958
3912.86	1.29916
3922.5	1.30145
3932.14	1.30238
3941.79	1.30444
3951.43	1.30524
3961.07	1.3085
3970.71	1.30832
3980.36	1.3099
3990	1.31069
3999.64	1.31428
