Measurement: Infrared, Infrared Data Processed
Mineral: Kurnakovite
Rruff sample: R050105
Ideal chemistry: MgB_3_O_3_(OH)_5_5H_2_O
Locality: Kramer deposit, Boron, Kern County, California, USA
Source: Rock Currier
Description: Tabular single crystal
Measured chemistry: MgB_3_O_3_(OH)_5_Â·5H_2_O
x	intensity
399.193	0.145858
408.835	0.149924
418.477	0.123887
428.12	0.106531
437.762	0.127705
447.404	0.154353
457.047	0.175762
466.689	0.186832
476.331	0.164147
485.974	0.158685
495.616	0.156777
505.258	0.158616
514.901	0.16156
524.543	0.165861
534.185	0.15858
543.828	0.151722
553.47	0.141275
563.112	0.142673
572.755	0.15932
582.397	0.168732
592.039	0.17554
601.682	0.186603
611.324	0.193291
620.966	0.197574
630.609	0.198062
640.251	0.203174
649.893	0.214852
659.536	0.201606
669.178	0.168487
678.82	0.160207
688.463	0.167601
698.105	0.177775
707.747	0.182783
717.39	0.181099
727.032	0.181049
736.674	0.188853
746.317	0.185761
755.959	0.17438
765.601	0.159148
775.244	0.14798
784.886	0.143253
794.528	0.148901
804.171	0.174187
813.813	0.191153
823.455	0.180305
833.098	0.176596
842.74	0.183332
852.382	0.186607
862.025	0.182694
871.667	0.178188
881.309	0.171867
890.952	0.161284
900.594	0.140977
910.236	0.115418
919.879	0.0969856
929.521	0.0978918
939.163	0.109792
948.806	0.115623
958.448	0.149245
968.09	0.195181
977.733	0.225603
987.375	0.23619
997.017	0.241725
1006.66	0.245718
1016.3	0.233658
1025.94	0.206455
1035.59	0.187016
1045.23	0.176097
1054.87	0.153305
1064.51	0.129904
1074.16	0.110992
1083.8	0.0954663
1093.44	0.0893964
1103.08	0.0816274
1112.72	0.0729127
1122.37	0.0663986
1132.01	0.0640006
1141.65	0.0653761
1151.3	0.0704914
1160.94	0.0730562
1170.58	0.0654145
1180.22	0.0623684
1189.86	0.0700645
1199.51	0.0892381
1209.15	0.118048
1218.79	0.131502
1228.43	0.11021
1238.08	0.0898532
1247.72	0.088757
1257.36	0.096761
1267	0.0972613
1276.64	0.0879879
1286.29	0.0826918
1295.93	0.0783496
1305.57	0.0716948
1315.21	0.0751347
1324.86	0.0931537
1334.5	0.1284
1344.14	0.16239
1353.78	0.152085
1363.43	0.112615
1373.07	0.098319
1382.71	0.119902
1392.35	0.137927
1401.99	0.130835
1411.64	0.126485
1421.28	0.109228
1430.92	0.0782068
1440.57	0.061091
1450.21	0.0657342
1459.85	0.0603106
1469.49	0.0401188
1479.13	0.0281255
1488.78	0.0230595
1498.42	0.0210098
1508.06	0.0204556
1517.7	0.0200168
1527.35	0.0201244
1536.99	0.0207377
1546.63	0.0212689
1556.27	0.0229277
1565.91	0.0233225
1575.56	0.025156
1585.2	0.0262548
1594.84	0.0291585
1604.48	0.0318356
1614.13	0.0342271
1623.77	0.0345229
1633.41	0.0349005
1643.05	0.034384
1652.7	0.0353247
1662.34	0.03558
1671.98	0.0396835
1681.62	0.0463295
1691.27	0.0401823
1700.91	0.0286919
1710.55	0.020885
1720.19	0.0170468
1729.84	0.0142382
1739.48	0.012451
1749.12	0.0108691
1758.76	0.00971018
1768.4	0.00925409
1778.05	0.00858182
1787.69	0.00852473
1797.33	0.00816898
1806.97	0.00801655
1816.62	0.00736034
1826.26	0.00771673
1835.9	0.00707872
1845.54	0.00789087
1855.18	0.00728567
1864.83	0.00714635
1874.47	0.00595441
1884.11	0.00650691
1893.75	0.0067405
1903.4	0.0064264
1913.04	0.00639295
1922.68	0.00634176
1932.32	0.00641261
1941.97	0.00606213
1951.61	0.00525169
1961.25	0.00705075
1970.89	0.00403399
1980.54	0.00771502
1990.18	0.00727665
1999.82	0.00649203
2009.46	0.00801398
2019.11	0.00549605
2028.75	0.00792044
2038.39	0.00700475
2048.03	0.00986269
2057.67	0.00996467
2067.32	0.0087755
2076.96	0.00979562
2086.6	0.00946845
2096.24	0.0100553
2105.89	0.0102676
2115.53	0.010614
2125.17	0.0104217
2134.81	0.0103981
2144.45	0.0109332
2154.1	0.0133497
2163.74	0.0138584
2173.38	0.0137334
2183.02	0.0135122
2192.67	0.0146311
2202.31	0.0139971
2211.95	0.0136432
2221.59	0.0160672
2231.24	0.0152396
2240.88	0.0162276
2250.52	0.0155425
2260.16	0.0155393
2269.8	0.0163882
2279.45	0.017582
2289.09	0.0179259
2298.73	0.0175974
2308.38	0.0183599
2318.02	0.0190371
2327.66	0.0195001
2337.3	0.0201193
2346.94	0.0188912
2356.59	0.0204761
2366.23	0.0202053
2375.87	0.0186376
2385.51	0.0184999
2395.16	0.0187039
2404.8	0.0178462
2414.44	0.0186743
2424.08	0.0183781
2433.72	0.0179017
2443.37	0.0182746
2453.01	0.0181433
2462.65	0.0181332
2472.29	0.0188014
2481.94	0.018595
2491.58	0.018707
2501.22	0.0181967
2510.86	0.0178491
2520.51	0.0188866
2530.15	0.0187139
2539.79	0.0190824
2549.43	0.020086
2559.07	0.0197844
2568.72	0.0210747
2578.36	0.0208054
2588	0.0214022
2597.64	0.0209367
2607.29	0.0209345
2616.93	0.0213814
2626.57	0.022276
2636.21	0.0217056
2645.86	0.0219874
2655.5	0.0220162
2665.14	0.0217153
2674.78	0.0218384
2684.43	0.0220495
2694.07	0.0230001
2703.71	0.0234147
2713.35	0.0246305
2722.99	0.0257718
2732.64	0.0268659
2742.28	0.0277932
2751.92	0.0289622
2761.56	0.0298827
2771.21	0.0312073
2780.85	0.0316228
2790.49	0.0335188
2800.13	0.0352934
2809.78	0.0363046
2819.42	0.0378785
2829.06	0.0398461
2838.7	0.0418795
2848.34	0.044264
2857.99	0.0463061
2867.63	0.0494784
2877.27	0.0518531
2886.91	0.0550101
2896.56	0.0580376
2906.2	0.0616722
2915.84	0.0660129
2925.48	0.0701331
2935.13	0.0733129
2944.77	0.0788129
2954.41	0.0838458
2964.05	0.088382
2973.7	0.0936355
2983.34	0.098261
2992.98	0.104598
3002.62	0.109384
3012.26	0.113083
3021.91	0.118634
3031.55	0.121471
3041.19	0.123945
3050.83	0.127632
3060.48	0.131709
3070.12	0.134847
3079.76	0.138905
3089.4	0.145462
3099.05	0.151476
3108.69	0.160243
3118.33	0.168438
3127.97	0.178337
3137.61	0.187751
3147.26	0.200643
3156.9	0.212881
3166.54	0.225437
3176.18	0.237735
3185.83	0.249879
3195.47	0.260169
3205.11	0.268707
3214.75	0.277693
3224.4	0.284696
3234.04	0.28633
3243.68	0.282536
3253.32	0.272778
3262.97	0.261288
3272.61	0.252506
3282.25	0.247349
3291.89	0.24467
3301.53	0.241156
3311.18	0.240509
3320.82	0.240901
3330.46	0.237113
3340.1	0.228592
3349.75	0.216204
3359.39	0.202474
3369.03	0.18813
3378.67	0.177829
3388.32	0.168653
3397.96	0.161237
3407.6	0.155151
3417.24	0.153252
3426.89	0.155792
3436.53	0.1665
3446.17	0.176704
3455.81	0.177688
3465.45	0.165796
3475.1	0.133302
3484.74	0.103491
3494.38	0.0830866
3504.02	0.074166
3513.67	0.0792295
3523.31	0.0992788
3532.95	0.104628
3542.59	0.0863629
3552.24	0.0817361
3561.88	0.0922365
3571.52	0.0561744
3581.16	0.0246985
3590.8	0.0173511
3600.45	0.0121416
3610.09	0.0100509
3619.73	0.00667494
3629.37	0.00537967
3639.02	0.00304371
3648.66	0.00319562
3658.3	-0.0006221
3667.94	-0.00117596
3677.59	0.00092948
3687.23	-0.00120543
3696.87	-0.00227852
3706.51	-0.00136855
3716.16	-0.00149542
3725.8	0.000121833
3735.44	7.13536e-05
3745.08	0.000316634
3754.72	-0.00107593
3764.37	-0.000955391
3774.01	0.000809879
3783.65	-0.00128957
3793.29	-9.62546e-05
3802.94	-0.00102904
3812.58	0.000143835
3822.22	0.000440474
3831.86	-0.000603153
3841.51	-3.11353e-06
3851.15	0.00147727
3860.79	-0.000261558
3870.43	0.000924453
3880.07	-0.000101412
3889.72	0.00260981
3899.36	0.00190532
3909	0.000181522
3918.64	0.00146882
3928.29	0.001511
3937.93	0.000555901
3947.57	0.00158813
3957.21	0.00134967
3966.86	0.00166915
3976.5	0.00138514
3986.14	0.00166053
3995.78	0.00146799
