Measurement: Infrared, Infrared Data Processed
Mineral: Laumontite
Rruff sample: R040020
Ideal chemistry: Ca(Si_4_Al_2_)O_12_4H_2_O
Locality: Pine Creek Tungsten mine, Bishop, Inyo County, California, USA
Source: University of Arizona Mineral Museum
Description: Pale gray long prism coated with smaller crystals
Measured chemistry: (Ca_0.99_K_0.01_)_Σ=1_(Si_4.01_Al_1.99_)O_12_·4H_2_O; H_2_O estimated by difference
x	intensity
399.193	0
408.835	0.217858
418.477	0.26146
428.12	0.266812
437.762	0.220012
447.404	0.155414
457.047	0.123599
466.689	0.11334
476.331	0.129615
485.974	0.140408
495.616	0.121863
505.258	0.106144
514.901	0.113585
524.543	0.118088
534.185	0.100381
543.828	0.0979559
553.47	0.111967
563.112	0.124176
572.755	0.108942
582.397	0.0833473
592.039	0.0700586
601.682	0.0672601
611.324	0.0656491
620.966	0.0625543
630.609	0.0558697
640.251	0.0527062
649.893	0.051907
659.536	0.0530895
669.178	0.0546234
678.82	0.0574962
688.463	0.0607824
698.105	0.0649674
707.747	0.0713076
717.39	0.0844242
727.032	0.103845
736.674	0.138286
746.317	0.201341
755.959	0.269534
765.601	0.224532
775.244	0.142629
784.886	0.0764257
794.528	0.0481174
804.171	0.0367845
813.813	0.0321321
823.455	0.0315563
833.098	0.0330519
842.74	0.0360295
852.382	0.0405228
862.025	0.0471115
871.667	0.0567727
881.309	0.0704536
890.952	0.089547
900.594	0.119212
910.236	0.163595
919.879	0.229483
929.521	0.31216
939.163	0.41443
948.806	0.474126
958.448	0.434612
968.09	0.383952
977.733	0.355749
987.375	0.352871
997.017	0.324604
1006.66	0.257545
1016.3	0.247282
1025.94	0.286645
1035.59	0.264251
1045.23	0.199431
1054.87	0.171238
1064.51	0.154646
1074.16	0.149418
1083.8	0.149921
1093.44	0.141283
1103.08	0.10329
1112.72	0.0936599
1122.37	0.132822
1132.01	0.141286
1141.65	0.0934946
1151.3	0.0530616
1160.94	0.0326602
1170.58	0.0240327
1180.22	0.0196157
1189.86	0.0163926
1199.51	0.014473
1209.15	0.0129585
1218.79	0.0116509
1228.43	0.0107556
1238.08	0.00970824
1247.72	0.00866557
1257.36	0.00813073
1267	0.00770891
1276.64	0.00748239
1286.29	0.00726317
1295.93	0.00685349
1305.57	0.00693866
1315.21	0.0067537
1324.86	0.0068126
1334.5	0.00662523
1344.14	0.00665671
1353.78	0.00680747
1363.43	0.00691179
1373.07	0.006887
1382.71	0.00714772
1392.35	0.00712176
1401.99	0.00733565
1411.64	0.00763959
1421.28	0.00798908
1430.92	0.00794457
1440.57	0.0083303
1450.21	0.00844822
1459.85	0.00862968
1469.49	0.00839088
1479.13	0.00807838
1488.78	0.00776635
1498.42	0.00794144
1508.06	0.00804599
1517.7	0.00844788
1527.35	0.00869156
1536.99	0.00946161
1546.63	0.0100614
1556.27	0.0105007
1565.91	0.0110201
1575.56	0.0123558
1585.2	0.013623
1594.84	0.0150626
1604.48	0.0174323
1614.13	0.02128
1623.77	0.029933
1633.41	0.0432128
1643.05	0.056006
1652.7	0.058158
1662.34	0.0425034
1671.98	0.0261741
1681.62	0.0172493
1691.27	0.0128577
1700.91	0.0111403
1710.55	0.0101548
1720.19	0.00994781
1729.84	0.00966614
1739.48	0.00904448
1749.12	0.00781348
1758.76	0.0065382
1768.4	0.00601503
1778.05	0.00553094
1787.69	0.0046422
1797.33	0.00463074
1806.97	0.00406397
1816.62	0.00368769
1826.26	0.00411209
1835.9	0.00422733
1845.54	0.00323981
1855.18	0.00267216
1864.83	0.00200085
1874.47	0.00185381
1884.11	0.00186436
1893.75	0.00191633
1903.4	0.000187011
1913.04	0.000357205
1922.68	0.00131827
1932.32	-0.00241677
1941.97	-0.00317764
1951.61	-0.00374946
1961.25	-0.0050854
1970.89	-0.00661718
1980.54	-0.00327934
1990.18	-0.00415784
1999.82	-0.00530106
2009.46	-0.00411454
2019.11	-0.00500818
2028.75	-0.00549167
2038.39	-0.00477201
2048.03	-0.00304901
2057.67	-0.000913466
2067.32	-7.6669e-05
2076.96	0.00147905
2086.6	0.00230528
2096.24	0.00186546
2105.89	0.00229605
2115.53	0.00236921
2125.17	0.00057132
2134.81	-0.00195573
2144.45	-0.00268416
2154.1	-0.00611652
2163.74	-0.0003323
2173.38	-0.000939416
2183.02	-0.000241794
2192.67	0.00220363
2202.31	0.00135046
2211.95	0.00172606
2221.59	0.00330112
2231.24	0.00348885
2240.88	0.00401288
2250.52	0.00258419
2260.16	0.00390603
2269.8	0.00342084
2279.45	0.00506783
2289.09	0.00626127
2298.73	0.00673793
2308.38	0.00803528
2318.02	0.00919927
2327.66	0.00765694
2337.3	0.00751584
2346.94	0.00771314
2356.59	0.00677094
2366.23	0.00653273
2375.87	0.00636709
2385.51	0.00594739
2395.16	0.00632459
2404.8	0.00611106
2414.44	0.00646087
2424.08	0.0058754
2433.72	0.00592554
2443.37	0.00598313
2453.01	0.0067752
2462.65	0.00607492
2472.29	0.00643102
2481.94	0.00631953
2491.58	0.00642065
2501.22	0.00670898
2510.86	0.00640968
2520.51	0.00566472
2530.15	0.00659318
2539.79	0.0072598
2549.43	0.00695579
2559.07	0.00726474
2568.72	0.0068063
2578.36	0.00816151
2588	0.00805038
2597.64	0.00851469
2607.29	0.00773324
2616.93	0.00856385
2626.57	0.00863197
2636.21	0.0086458
2645.86	0.00952087
2655.5	0.00940148
2665.14	0.00868605
2674.78	0.00812043
2684.43	0.00835403
2694.07	0.00864085
2703.71	0.00805356
2713.35	0.00777599
2722.99	0.00779055
2732.64	0.00872435
2742.28	0.00876484
2751.92	0.00910902
2761.56	0.00892097
2771.21	0.008781
2780.85	0.00883699
2790.49	0.0101684
2800.13	0.0101422
2809.78	0.00993338
2819.42	0.00985832
2829.06	0.0102685
2838.7	0.0103614
2848.34	0.0104601
2857.99	0.0100353
2867.63	0.0104321
2877.27	0.0117919
2886.91	0.0106933
2896.56	0.0114617
2906.2	0.0113084
2915.84	0.0109102
2925.48	0.0117085
2935.13	0.0127336
2944.77	0.0127441
2954.41	0.0123713
2964.05	0.0125471
2973.7	0.0129377
2983.34	0.0135775
2992.98	0.01365
3002.62	0.0137162
3012.26	0.0147954
3021.91	0.0147846
3031.55	0.0157866
3041.19	0.0162979
3050.83	0.0170601
3060.48	0.0182795
3070.12	0.0184696
3079.76	0.0191706
3089.4	0.020331
3099.05	0.0202918
3108.69	0.0216221
3118.33	0.0215255
3127.97	0.0233799
3137.61	0.0252833
3147.26	0.0251338
3156.9	0.0266368
3166.54	0.0276889
3176.18	0.0294591
3185.83	0.0311356
3195.47	0.0311325
3205.11	0.0334982
3214.75	0.0356871
3224.4	0.0367168
3234.04	0.0396169
3243.68	0.0407545
3253.32	0.0439674
3262.97	0.0438498
3272.61	0.0456202
3282.25	0.0466715
3291.89	0.0471501
3301.53	0.0466558
3311.18	0.0477354
3320.82	0.0510764
3330.46	0.0525948
3340.1	0.056411
3349.75	0.0588672
3359.39	0.0601361
3369.03	0.0622773
3378.67	0.0627728
3388.32	0.0661739
3397.96	0.0672671
3407.6	0.0706264
3417.24	0.0717602
3426.89	0.0740416
3436.53	0.0742147
3446.17	0.0718979
3455.81	0.0725357
3465.45	0.0725413
3475.1	0.0704154
3484.74	0.0711058
3494.38	0.0699299
3504.02	0.0702962
3513.67	0.0692091
3523.31	0.0692971
3532.95	0.0717987
3542.59	0.072054
3552.24	0.0685649
3561.88	0.0648338
3571.52	0.0579025
3581.16	0.0505645
3590.8	0.0453732
3600.45	0.0404586
3610.09	0.0314203
3619.73	0.0263948
3629.37	0.0240533
3639.02	0.0162933
3648.66	0.017063
3658.3	0.011398
3667.94	0.0130812
3677.59	0.00998383
3687.23	0.00969333
3696.87	0.0113377
3706.51	0.00976109
3716.16	0.00918567
3725.8	0.00970641
3735.44	0.00878618
3745.08	0.0104476
3754.72	0.0088274
3764.37	0.0084726
3774.01	0.0080429
3783.65	0.0104262
3793.29	0.00970498
3802.94	0.00915571
3812.58	0.0104537
3822.22	0.0102735
3831.86	0.0100629
3841.51	0.00864432
3851.15	0.00750141
3860.79	0.00689393
3870.43	0.00912219
3880.07	0.0102267
3889.72	0.0094563
3899.36	0.00749596
3909	0.0106014
3918.64	0.0129051
3928.29	0.0099345
3937.93	0.00833944
3947.57	0.00975053
3957.21	0.00768987
3966.86	0.00938058
3976.5	0.0121895
3986.14	0.00796535
3995.78	0.00785028
