Measurement: Infrared, Infrared Data Processed
Mineral: Lazulite
Rruff sample: R050269
Ideal chemistry: MgAl_2_(PO_4_)_2_(OH)_2_
Locality: Horsjoberg, Varmland, Sweden
Source: Marcus Origlieri
Description: Deep-blue indistinct crystals
Measured chemistry: (Mg_0.69_Fe_0.25_Mn_0.01_)Al_2.00_(P_1.00_O_4_)_2_(OH)_2_
x	intensity
374.123	0.302294
383.765	0.25194
393.407	0.227319
403.05	0.233921
412.692	0.252255
422.334	0.261486
431.976	0.242733
441.619	0.250946
451.261	0.26323
460.904	0.248735
470.546	0.233011
480.188	0.209989
489.83	0.193554
499.473	0.210868
509.115	0.204684
518.758	0.163084
528.4	0.129734
538.042	0.142122
547.684	0.156329
557.327	0.145458
566.969	0.129947
576.611	0.116542
586.254	0.113021
595.896	0.0931226
605.538	0.082888
615.181	0.0753685
624.823	0.0787046
634.466	0.116636
644.108	0.159994
653.75	0.135747
663.393	0.0779459
673.035	0.0455794
682.677	0.03503
692.319	0.0333194
701.962	0.0340115
711.604	0.0382841
721.246	0.0453114
730.889	0.0585526
740.531	0.0793529
750.173	0.112874
759.816	0.162869
769.458	0.194881
779.101	0.176609
788.743	0.143075
798.385	0.131303
808.028	0.132347
817.67	0.122737
827.312	0.100345
836.955	0.071371
846.597	0.0468877
856.239	0.0348377
865.881	0.0312235
875.524	0.0297635
885.166	0.028898
894.808	0.0306658
904.451	0.0337335
914.093	0.0380598
923.736	0.0445704
933.378	0.0535146
943.02	0.0659967
952.663	0.0839284
962.305	0.109571
971.947	0.147348
981.59	0.19989
991.232	0.26262
1000.87	0.291689
1010.52	0.249771
1020.16	0.223196
1029.8	0.245389
1039.44	0.220084
1049.09	0.234818
1058.73	0.256275
1068.37	0.289274
1078.01	0.310618
1087.65	0.306165
1097.3	0.291165
1106.94	0.274463
1116.58	0.256439
1126.22	0.231028
1135.87	0.220751
1145.51	0.210024
1155.15	0.184823
1164.79	0.141103
1174.44	0.101281
1184.08	0.0835128
1193.72	0.10284
1203.36	0.0697025
1213.01	0.0415119
1222.65	0.0258872
1232.29	0.0176462
1241.93	0.0131235
1251.58	0.0110136
1261.22	0.00924784
1270.86	0.00830399
1280.5	0.00761438
1290.14	0.00681409
1299.79	0.00603081
1309.43	0.00586139
1319.07	0.00570114
1328.71	0.00541551
1338.36	0.00534667
1348	0.00543835
1357.64	0.00580171
1367.28	0.00614406
1376.92	0.00668173
1386.57	0.00705549
1396.21	0.00748785
1405.85	0.00837628
1415.49	0.00954957
1425.14	0.0105231
1434.78	0.0113858
1444.42	0.0115985
1454.06	0.0116566
1463.71	0.0114128
1473.35	0.0104888
1482.99	0.00982759
1492.63	0.00933536
1502.28	0.008996
1511.92	0.0086912
1521.56	0.00844963
1531.2	0.00854354
1540.85	0.00794983
1550.49	0.00804185
1560.13	0.0078489
1569.77	0.0077023
1579.41	0.00789809
1589.06	0.0081782
1598.7	0.00834774
1608.34	0.00836544
1617.98	0.0084514
1627.63	0.00853632
1637.27	0.00871239
1646.91	0.00881901
1656.55	0.00885611
1666.19	0.00839495
1675.84	0.00831434
1685.48	0.00798399
1695.12	0.0075426
1704.77	0.00750919
1714.41	0.00784102
1724.05	0.00823594
1733.69	0.00766466
1743.33	0.00715924
1752.98	0.00668708
1762.62	0.00656259
1772.26	0.00633288
1781.9	0.00637802
1791.55	0.00595484
1801.19	0.00626098
1810.83	0.00615783
1820.47	0.00631124
1830.12	0.00601718
1839.76	0.00606389
1849.4	0.00635525
1859.04	0.005996
1868.68	0.00616445
1878.33	0.00601691
1887.97	0.00608301
1897.61	0.00602936
1907.25	0.00661985
1916.9	0.00677052
1926.54	0.00612562
1936.18	0.00620156
1945.82	0.00482928
1955.46	0.00596315
1965.11	0.00585125
1974.75	0.00569782
1984.39	0.00736385
1994.04	0.00574754
2003.68	0.00425404
2013.32	0.00660842
2022.96	0.00772554
2032.6	0.00863803
2042.25	0.00924432
2051.89	0.00857841
2061.53	0.00755767
2071.17	0.00978956
2080.82	0.00862612
2090.46	0.00836966
2100.1	0.00861678
2109.74	0.00731207
2119.39	0.00751578
2129.03	0.00648449
2138.67	0.0075826
2148.31	0.00602376
2157.95	0.00821687
2167.6	0.0109143
2177.24	0.00947256
2186.88	0.0110938
2196.52	0.010224
2206.17	0.0103123
2215.81	0.0117697
2225.45	0.0114189
2235.09	0.0121211
2244.74	0.0116293
2254.38	0.0123925
2264.02	0.0118076
2273.66	0.0131919
2283.3	0.0136882
2292.95	0.0128482
2302.59	0.0131731
2312.23	0.0126613
2321.87	0.0141139
2331.52	0.0118901
2341.16	0.0116146
2350.8	0.0116524
2360.44	0.0112396
2370.09	0.0108759
2379.73	0.0109202
2389.37	0.0116997
2399.01	0.0116579
2408.66	0.0124649
2418.3	0.0120687
2427.94	0.0128202
2437.58	0.0132955
2447.22	0.0136013
2456.87	0.0136783
2466.51	0.0130184
2476.15	0.0132813
2485.79	0.0137851
2495.44	0.0141735
2505.08	0.0142245
2514.72	0.014118
2524.36	0.0140897
2534.01	0.0138234
2543.65	0.0145624
2553.29	0.0150325
2562.93	0.0149321
2572.57	0.0145309
2582.22	0.0158586
2591.86	0.0153915
2601.5	0.0157953
2611.14	0.0160982
2620.79	0.0163993
2630.43	0.0162314
2640.07	0.0170273
2649.71	0.0167154
2659.36	0.0164346
2669	0.0158913
2678.64	0.0158736
2688.28	0.0162609
2697.93	0.0162146
2707.57	0.0168852
2717.21	0.0168584
2726.85	0.0163375
2736.49	0.0164153
2746.14	0.0166013
2755.78	0.0166654
2765.42	0.0168486
2775.06	0.0178109
2784.71	0.0179602
2794.35	0.0177933
2803.99	0.017834
2813.63	0.0182593
2823.28	0.0182671
2832.92	0.0193731
2842.56	0.0211316
2852.2	0.0247547
2861.84	0.0215659
2871.49	0.0211421
2881.13	0.0207237
2890.77	0.0218796
2900.41	0.0227135
2910.06	0.025218
2919.7	0.0296112
2929.34	0.0279363
2938.98	0.0242226
2948.62	0.0226186
2958.27	0.0224972
2967.91	0.0215406
2977.55	0.0206707
2987.2	0.0208611
2996.84	0.0211796
3006.48	0.0213416
3016.12	0.0194622
3025.76	0.021443
3035.41	0.022857
3045.05	0.0225662
3054.69	0.0229116
3064.33	0.0229568
3073.98	0.0231011
3083.62	0.023348
3093.26	0.0240647
3102.9	0.0237549
3112.55	0.0244833
3122.19	0.0252289
3131.83	0.0253491
3141.47	0.0260957
3151.11	0.0263328
3160.76	0.0267394
3170.4	0.0274304
3180.04	0.0278114
3189.68	0.0278597
3199.33	0.0286302
3208.97	0.0298519
3218.61	0.0304336
3228.25	0.0312364
3237.9	0.0315939
3247.54	0.0322295
3257.18	0.0329844
3266.82	0.0341556
3276.47	0.034744
3286.11	0.0359796
3295.75	0.0368098
3305.39	0.0387093
3315.03	0.0392277
3324.68	0.0402626
3334.32	0.0430244
3343.96	0.0460296
3353.6	0.0522161
3363.25	0.0641902
3372.89	0.0832877
3382.53	0.105184
3392.17	0.124194
3401.82	0.152591
3411.46	0.107511
3421.1	0.0447403
3430.74	0.0282455
3440.39	0.0258339
3450.03	0.0254403
3459.67	0.0267783
3469.31	0.026112
3478.95	0.0247867
3488.6	0.0231341
3498.24	0.02311
3507.88	0.0216614
3517.52	0.0222604
3527.17	0.0224583
3536.81	0.0216564
3546.45	0.0207904
3556.09	0.0198393
3565.74	0.0203029
3575.38	0.0198588
3585.02	0.0192466
3594.66	0.0191528
3604.3	0.0187284
3613.95	0.0193894
3623.59	0.0192866
3633.23	0.0175386
3642.87	0.0186839
3652.52	0.0181954
3662.16	0.0183056
3671.8	0.0181082
3681.44	0.0176158
3691.09	0.0175482
3700.73	0.0175845
3710.37	0.0185245
3720.01	0.0184385
3729.66	0.0194964
3739.3	0.0194061
3748.94	0.0187099
3758.58	0.0188237
3768.22	0.0196292
3777.87	0.0194792
3787.51	0.0197682
3797.15	0.0196271
3806.79	0.0192442
3816.44	0.0194606
3826.08	0.0194702
3835.72	0.0202002
3845.36	0.0185228
3855.01	0.0182974
3864.65	0.0189852
3874.29	0.0197452
3883.93	0.0194477
3893.57	0.0194748
3903.22	0.0196486
3912.86	0.0185456
3922.5	0.0181838
3932.14	0.0195351
3941.79	0.0189633
3951.43	0.0189986
3961.07	0.0193152
3970.71	0.0204024
3980.36	0.0197281
3990	0.0206213
3999.64	0.0201071
