Measurement: Infrared, Infrared Data Processed
Mineral: Lazulite
Rruff sample: R050110
Ideal chemistry: MgAl_2_(PO_4_)_2_(OH)_2_
Locality: Rapid Creek, Yukon Territory, Canada
Source: Rock Currier
Description: Azure-blue stubby crystals with complex terminations
Measured chemistry: (Mg_0.84_Fe_0.16_)Al_2.00_(P_1.00_O_4_)_2_(OH)_2_
x	intensity
399.193	0
408.835	0.1587
418.477	0.175991
428.12	0.183088
437.762	0.160755
447.404	0.183309
457.047	0.178082
466.689	0.171068
476.331	0.161832
485.974	0.144848
495.616	0.135927
505.258	0.15921
514.901	0.141016
524.543	0.113562
534.185	0.0956452
543.828	0.114766
553.47	0.114999
563.112	0.103137
572.755	0.0883402
582.397	0.0819098
592.039	0.0795894
601.682	0.062216
611.324	0.0601298
620.966	0.0474459
630.609	0.0675856
640.251	0.0921477
649.893	0.113379
659.536	0.0753278
669.178	0.0397466
678.82	0.025046
688.463	0.0208685
698.105	0.0208811
707.747	0.0231232
717.39	0.0273475
727.032	0.0346745
736.674	0.0466234
746.317	0.0662871
755.959	0.09477
765.601	0.126407
775.244	0.131466
784.886	0.1117
794.528	0.0939518
804.171	0.0917278
813.813	0.0898959
823.455	0.0788161
833.098	0.0599639
842.74	0.0398373
852.382	0.0260424
862.025	0.0205745
871.667	0.018648
881.309	0.0185396
890.952	0.0197503
900.594	0.0218842
910.236	0.0248443
919.879	0.0289376
929.521	0.0346096
939.163	0.0418932
948.806	0.0518317
958.448	0.0662645
968.09	0.085283
977.733	0.112814
987.375	0.150396
997.017	0.187478
1006.66	0.190568
1016.3	0.157616
1025.94	0.15817
1035.59	0.160764
1045.23	0.143533
1054.87	0.168866
1064.51	0.179783
1074.16	0.204333
1083.8	0.211955
1093.44	0.20729
1103.08	0.19888
1112.72	0.189687
1122.37	0.174787
1132.01	0.161512
1141.65	0.155493
1151.3	0.146815
1160.94	0.122137
1170.58	0.0885679
1180.22	0.0642561
1189.86	0.0675212
1199.51	0.0653452
1209.15	0.0386966
1218.79	0.0229144
1228.43	0.014034
1238.08	0.00968596
1247.72	0.00703911
1257.36	0.00594986
1267	0.00444575
1276.64	0.00417819
1286.29	0.00294432
1295.93	0.00317729
1305.57	0.00275124
1315.21	0.00260411
1324.86	0.002068
1334.5	0.00206668
1344.14	0.00210729
1353.78	0.00215016
1363.43	0.00205365
1373.07	0.00241199
1382.71	0.00229222
1392.35	0.0022889
1401.99	0.00222022
1411.64	0.00232043
1421.28	0.00259572
1430.92	0.0026046
1440.57	0.00259981
1450.21	0.00285866
1459.85	0.00265878
1469.49	0.00344018
1479.13	0.00291124
1488.78	0.00319933
1498.42	0.00320354
1508.06	0.0034495
1517.7	0.00379814
1527.35	0.00413103
1536.99	0.00409354
1546.63	0.00415166
1556.27	0.00358704
1565.91	0.00455912
1575.56	0.00421929
1585.2	0.00475433
1594.84	0.00498168
1604.48	0.00489103
1614.13	0.005029
1623.77	0.00516727
1633.41	0.00520296
1643.05	0.00505153
1652.7	0.00481196
1662.34	0.00529105
1671.98	0.0050951
1681.62	0.00493559
1691.27	0.00500182
1700.91	0.00489105
1710.55	0.00520562
1720.19	0.004954
1729.84	0.00447552
1739.48	0.00474054
1749.12	0.0046884
1758.76	0.0042739
1768.4	0.00445272
1778.05	0.00430759
1787.69	0.00423416
1797.33	0.0041341
1806.97	0.00462911
1816.62	0.00377721
1826.26	0.00443368
1835.9	0.00413248
1845.54	0.00417328
1855.18	0.00433349
1864.83	0.00414993
1874.47	0.00468086
1884.11	0.00392421
1893.75	0.00399058
1903.4	0.004225
1913.04	0.00411783
1922.68	0.00291707
1932.32	0.00190716
1941.97	0.00299771
1951.61	0.00194453
1961.25	0.000990982
1970.89	-0.00279452
1980.54	0.0017495
1990.18	0.000776301
1999.82	-0.00103133
2009.46	-0.00180553
2019.11	-0.00209593
2028.75	-0.000225152
2038.39	0.00110537
2048.03	0.00434297
2057.67	0.00155894
2067.32	0.00172123
2076.96	0.00440068
2086.6	0.00368454
2096.24	0.0031075
2105.89	0.00263614
2115.53	0.00357886
2125.17	0.00111672
2134.81	-0.000631576
2144.45	-0.00057138
2154.1	-0.00544848
2163.74	0.000591866
2173.38	-0.00130712
2183.02	-0.000852461
2192.67	0.00188203
2202.31	0.000710883
2211.95	0.00139721
2221.59	0.00407522
2231.24	0.00171992
2240.88	0.00324557
2250.52	0.0040259
2260.16	0.00512607
2269.8	0.00486569
2279.45	0.00618986
2289.09	0.00669249
2298.73	0.0082887
2308.38	0.0089268
2318.02	0.00798132
2327.66	0.00789628
2337.3	0.00823355
2346.94	0.00892278
2356.59	0.00822899
2366.23	0.00726051
2375.87	0.00677757
2385.51	0.00560795
2395.16	0.00660698
2404.8	0.00778759
2414.44	0.00706075
2424.08	0.00841442
2433.72	0.00824095
2443.37	0.00975332
2453.01	0.00895897
2462.65	0.00999536
2472.29	0.00879884
2481.94	0.00832757
2491.58	0.00832494
2501.22	0.00922941
2510.86	0.00931879
2520.51	0.00867461
2530.15	0.00898983
2539.79	0.00875592
2549.43	0.00942031
2559.07	0.0096036
2568.72	0.00976232
2578.36	0.00916251
2588	0.0100182
2597.64	0.0103359
2607.29	0.00994051
2616.93	0.0100371
2626.57	0.00939232
2636.21	0.0106877
2645.86	0.0103123
2655.5	0.0106722
2665.14	0.00962534
2674.78	0.00965412
2684.43	0.00956943
2694.07	0.00953457
2703.71	0.0096517
2713.35	0.00907867
2722.99	0.0101598
2732.64	0.0103669
2742.28	0.00946141
2751.92	0.00982413
2761.56	0.0106907
2771.21	0.00968653
2780.85	0.0107841
2790.49	0.00978587
2800.13	0.0106876
2809.78	0.0105632
2819.42	0.0102246
2829.06	0.0106245
2838.7	0.0107399
2848.34	0.0114932
2857.99	0.0108953
2867.63	0.011117
2877.27	0.0111871
2886.91	0.0115686
2896.56	0.010642
2906.2	0.011378
2915.84	0.0117662
2925.48	0.0119419
2935.13	0.0120918
2944.77	0.0118354
2954.41	0.0108868
2964.05	0.0121877
2973.7	0.0130054
2983.34	0.0122125
2992.98	0.0134409
3002.62	0.0123727
3012.26	0.011815
3021.91	0.0119964
3031.55	0.0112052
3041.19	0.0121939
3050.83	0.0122534
3060.48	0.0132392
3070.12	0.0122104
3079.76	0.0130228
3089.4	0.0123535
3099.05	0.0136794
3108.69	0.0117427
3118.33	0.0132185
3127.97	0.0129279
3137.61	0.0134025
3147.26	0.0144259
3156.9	0.0156322
3166.54	0.0133549
3176.18	0.0159734
3185.83	0.01407
3195.47	0.0159573
3205.11	0.0158068
3214.75	0.0152062
3224.4	0.0157729
3234.04	0.0169135
3243.68	0.0162949
3253.32	0.0171282
3262.97	0.0190656
3272.61	0.0208378
3282.25	0.0198166
3291.89	0.0203083
3301.53	0.0227331
3311.18	0.0223131
3320.82	0.0227676
3330.46	0.02407
3340.1	0.0266871
3349.75	0.0270943
3359.39	0.034023
3369.03	0.0440347
3378.67	0.0613098
3388.32	0.0780799
3397.96	0.116516
3407.6	0.109109
3417.24	0.0430222
3426.89	0.0176915
3436.53	0.012905
3446.17	0.0127883
3455.81	0.0135854
3465.45	0.0135734
3475.1	0.012276
3484.74	0.0107232
3494.38	0.0134921
3504.02	0.0105246
3513.67	0.0104028
3523.31	0.0108947
3532.95	0.00924794
3542.59	0.0107187
3552.24	0.0106239
3561.88	0.0100703
3571.52	0.011061
3581.16	0.00904809
3590.8	0.00983484
3600.45	0.00976979
3610.09	0.0106911
3619.73	0.00986241
3629.37	0.0124947
3639.02	0.00930809
3648.66	0.0114229
3658.3	0.00955395
3667.94	0.00598941
3677.59	0.0105802
3687.23	0.00789544
3696.87	0.00830646
3706.51	0.0114556
3716.16	0.0107309
3725.8	0.00889263
3735.44	0.00783297
3745.08	0.00939184
3754.72	0.0103817
3764.37	0.00878769
3774.01	0.00875471
3783.65	0.0104984
3793.29	0.0106782
3802.94	0.00915139
3812.58	0.0133728
3822.22	0.0126653
3831.86	0.00921787
3841.51	0.0112826
3851.15	0.00934151
3860.79	0.00869506
3870.43	0.0128498
3880.07	0.0111423
3889.72	0.0123964
3899.36	0.00936685
3909	0.00737521
3918.64	0.00557635
3928.29	0.0102314
3937.93	0.00689992
3947.57	0.0114581
3957.21	0.0108527
3966.86	0.00956936
3976.5	0.0115488
3986.14	0.0111695
3995.78	0.0106326
