Measurement: Infrared, Infrared Data Processed
Mineral: Leadhillite
Rruff sample: R060047
Ideal chemistry: Pb^2+^_4_(S^6+^O_4_)(CO_3_)_2_(OH)_2_
Locality: Tsumeb mine, Tsumeb, Otavi District, Oshikoto, Namibia
Source: University of Arizona Mineral Museum
Description: Grayish-blue cleavage fragment
Measured chemistry: Pb_4.00_(S_1.00_O_4_)(CO_3_)_2_(OH)_2_
x	intensity
399.193	0.118275
408.835	0.126143
418.477	0.11655
428.12	0.103923
437.762	0.0774793
447.404	0.0523527
457.047	0.0458721
466.689	0.0428148
476.331	0.0385391
485.974	0.0409125
495.616	0.0444824
505.258	0.049336
514.901	0.0571615
524.543	0.0678003
534.185	0.0788524
543.828	0.0939015
553.47	0.109327
563.112	0.127603
572.755	0.147874
582.397	0.178364
592.039	0.211977
601.682	0.213338
611.324	0.149299
620.966	0.147537
630.609	0.150649
640.251	0.0892997
649.893	0.0763631
659.536	0.087711
669.178	0.11889
678.82	0.301336
688.463	0.117169
698.105	0.0762142
707.747	0.0887935
717.39	0.0550295
727.032	0.0547512
736.674	0.0553779
746.317	0.0554131
755.959	0.0554631
765.601	0.0571085
775.244	0.0609717
784.886	0.0662464
794.528	0.073164
804.171	0.0843895
813.813	0.10057
823.455	0.121448
833.098	0.185339
842.74	0.124373
852.382	0.0874117
862.025	0.0809625
871.667	0.0650334
881.309	0.0694808
890.952	0.0743797
900.594	0.077427
910.236	0.0819441
919.879	0.0887975
929.521	0.0994272
939.163	0.118207
948.806	0.148351
958.448	0.185055
968.09	0.162166
977.733	0.144625
987.375	0.178702
997.017	0.224886
1006.66	0.274494
1016.3	0.321295
1025.94	0.357226
1035.59	0.365225
1045.23	0.336313
1054.87	0.315835
1064.51	0.281404
1074.16	0.276828
1083.8	0.279908
1093.44	0.2623
1103.08	0.235305
1112.72	0.212903
1122.37	0.197559
1132.01	0.18959
1141.65	0.184434
1151.3	0.178782
1160.94	0.166941
1170.58	0.159197
1180.22	0.145316
1189.86	0.123798
1199.51	0.0989768
1209.15	0.0822357
1218.79	0.0786354
1228.43	0.0813056
1238.08	0.0867505
1247.72	0.0957837
1257.36	0.107774
1267	0.123574
1276.64	0.142956
1286.29	0.164168
1295.93	0.190348
1305.57	0.219325
1315.21	0.251462
1324.86	0.285693
1334.5	0.325886
1344.14	0.371791
1353.78	0.428348
1363.43	0.497416
1373.07	0.551794
1382.71	0.580923
1392.35	0.570572
1401.99	0.519633
1411.64	0.438609
1421.28	0.351906
1430.92	0.28321
1440.57	0.229332
1450.21	0.178302
1459.85	0.133135
1469.49	0.100102
1479.13	0.0779303
1488.78	0.0615533
1498.42	0.0500313
1508.06	0.0406035
1517.7	0.0346119
1527.35	0.0292783
1536.99	0.0255369
1546.63	0.0230883
1556.27	0.0217652
1565.91	0.0211051
1575.56	0.0200396
1585.2	0.0198256
1594.84	0.0195418
1604.48	0.01983
1614.13	0.0195369
1623.77	0.0195791
1633.41	0.0195915
1643.05	0.0200481
1652.7	0.0203591
1662.34	0.0210469
1671.98	0.0209
1681.62	0.0219075
1691.27	0.0231384
1700.91	0.024347
1710.55	0.0250396
1720.19	0.026837
1729.84	0.0355766
1739.48	0.0401892
1749.12	0.0349494
1758.76	0.0306773
1768.4	0.0263817
1778.05	0.0259157
1787.69	0.0269247
1797.33	0.0272522
1806.97	0.0275874
1816.62	0.0268727
1826.26	0.0274069
1835.9	0.0285536
1845.54	0.0291955
1855.18	0.0293495
1864.83	0.0286518
1874.47	0.030007
1884.11	0.0319018
1893.75	0.030743
1903.4	0.0309044
1913.04	0.0295652
1922.68	0.0316673
1932.32	0.0315778
1941.97	0.031643
1951.61	0.0327003
1961.25	0.0329315
1970.89	0.0294812
1980.54	0.034926
1990.18	0.0385399
1999.82	0.0345323
2009.46	0.0316408
2019.11	0.0359629
2028.75	0.0336014
2038.39	0.0382581
2048.03	0.0378005
2057.67	0.038831
2067.32	0.0397472
2076.96	0.0382929
2086.6	0.038783
2096.24	0.0391662
2105.89	0.0407691
2115.53	0.0422564
2125.17	0.0421405
2134.81	0.0407604
2144.45	0.0410905
2154.1	0.0327455
2163.74	0.0420158
2173.38	0.0405627
2183.02	0.0464938
2192.67	0.0475751
2202.31	0.0465851
2211.95	0.0447007
2221.59	0.0449664
2231.24	0.0471445
2240.88	0.0461119
2250.52	0.0480183
2260.16	0.0521445
2269.8	0.050441
2279.45	0.0519289
2289.09	0.0527456
2298.73	0.0528931
2308.38	0.0530572
2318.02	0.0562738
2327.66	0.0552067
2337.3	0.0555692
2346.94	0.0558907
2356.59	0.0563168
2366.23	0.0564472
2375.87	0.0571033
2385.51	0.0572556
2395.16	0.060829
2404.8	0.062876
2414.44	0.0646541
2424.08	0.0661141
2433.72	0.0646628
2443.37	0.0612906
2453.01	0.0622647
2462.65	0.0615067
2472.29	0.0625005
2481.94	0.0617799
2491.58	0.0610034
2501.22	0.0602196
2510.86	0.0613336
2520.51	0.0623443
2530.15	0.0603974
2539.79	0.060306
2549.43	0.0605434
2559.07	0.0609524
2568.72	0.0605107
2578.36	0.059214
2588	0.0616629
2597.64	0.0612914
2607.29	0.0613954
2616.93	0.0620355
2626.57	0.0623883
2636.21	0.0647273
2645.86	0.063522
2655.5	0.0643839
2665.14	0.0646547
2674.78	0.0637141
2684.43	0.0653435
2694.07	0.06454
2703.71	0.0660207
2713.35	0.0666542
2722.99	0.0684083
2732.64	0.0681478
2742.28	0.0672738
2751.92	0.0692915
2761.56	0.0690082
2771.21	0.0712238
2780.85	0.071278
2790.49	0.0703853
2800.13	0.0706943
2809.78	0.0695542
2819.42	0.071216
2829.06	0.0723149
2838.7	0.0743417
2848.34	0.0747529
2857.99	0.073917
2867.63	0.0733996
2877.27	0.0756434
2886.91	0.0756469
2896.56	0.0753502
2906.2	0.0775761
2915.84	0.0805351
2925.48	0.0828767
2935.13	0.0831462
2944.77	0.0827755
2954.41	0.0819167
2964.05	0.08301
2973.7	0.0815703
2983.34	0.0824504
2992.98	0.083263
3002.62	0.0828295
3012.26	0.0826421
3021.91	0.0849712
3031.55	0.0871713
3041.19	0.0874331
3050.83	0.0888785
3060.48	0.0886981
3070.12	0.0897441
3079.76	0.0913239
3089.4	0.090092
3099.05	0.0934813
3108.69	0.0932558
3118.33	0.0951849
3127.97	0.0964024
3137.61	0.0985656
3147.26	0.0988833
3156.9	0.0999233
3166.54	0.103872
3176.18	0.107697
3185.83	0.108864
3195.47	0.111752
3205.11	0.112827
3214.75	0.115556
3224.4	0.118447
3234.04	0.120162
3243.68	0.123291
3253.32	0.126279
3262.97	0.130365
3272.61	0.137604
3282.25	0.142257
3291.89	0.146508
3301.53	0.149448
3311.18	0.154262
3320.82	0.155664
3330.46	0.158374
3340.1	0.158702
3349.75	0.163784
3359.39	0.159035
3369.03	0.161411
3378.67	0.15615
3388.32	0.160265
3397.96	0.158327
3407.6	0.156097
3417.24	0.153747
3426.89	0.153129
3436.53	0.151804
3446.17	0.152685
3455.81	0.159534
3465.45	0.162833
3475.1	0.168124
3484.74	0.152262
3494.38	0.133853
3504.02	0.107551
3513.67	0.0970166
3523.31	0.0897676
3532.95	0.0841423
3542.59	0.080402
3552.24	0.0806488
3561.88	0.0781776
3571.52	0.0811065
3581.16	0.0788023
3590.8	0.0770393
3600.45	0.0790649
3610.09	0.0817241
3619.73	0.0815572
3629.37	0.0781399
3639.02	0.0802131
3648.66	0.0772724
3658.3	0.0804434
3667.94	0.0773359
3677.59	0.0825217
3687.23	0.0798237
3696.87	0.0862827
3706.51	0.0850257
3716.16	0.0816939
3725.8	0.0830595
3735.44	0.0852285
3745.08	0.0829006
3754.72	0.0832554
3764.37	0.0844426
3774.01	0.0864879
3783.65	0.0884737
3793.29	0.0907621
3802.94	0.0910459
3812.58	0.0847997
3822.22	0.0867498
3831.86	0.0849735
3841.51	0.0879776
3851.15	0.0902552
3860.79	0.0845862
3870.43	0.0886251
3880.07	0.091609
3889.72	0.0901007
3899.36	0.0846885
3909	0.0908202
3918.64	0.0910953
3928.29	0.0898233
3937.93	0.0869614
3947.57	0.0891461
3957.21	0.0886952
3966.86	0.090137
3976.5	0.0913028
3986.14	0.0933479
3995.78	0.0949945
