Measurement: Infrared, Infrared Data Processed
Mineral: Levyne-Na
Rruff sample: R060021
Ideal chemistry: Na_6_(Si_12_Al_6_)O_36_18H_2_O
Locality: Dallas, Oregon, USA
Source: Bob Downs
Description: White tabular hexagonal-shaped crystals associated with analcime, R060023
Measured chemistry: (Na_0.70_Ca_0.26_K_0.04_)_6_(Si_0.58_Al_0.42_)_18_O_36_Â·18H_2_O
x	intensity
399.193	0.197715
408.835	0.213676
418.477	0.205107
428.12	0.186401
437.762	0.185525
447.404	0.166877
457.047	0.156165
466.689	0.125219
476.331	0.0892774
485.974	0.0719636
495.616	0.0615322
505.258	0.0590615
514.901	0.0599946
524.543	0.0634637
534.185	0.0671195
543.828	0.0685121
553.47	0.0644398
563.112	0.0611258
572.755	0.0609857
582.397	0.0620224
592.039	0.0613445
601.682	0.0614517
611.324	0.0629379
620.966	0.0681075
630.609	0.0801968
640.251	0.101619
649.893	0.118295
659.536	0.0938284
669.178	0.0622789
678.82	0.0484039
688.463	0.0472675
698.105	0.0508159
707.747	0.0522093
717.39	0.0486416
727.032	0.0468388
736.674	0.0446265
746.317	0.0462902
755.959	0.0518598
765.601	0.0437473
775.244	0.0388878
784.886	0.0388389
794.528	0.0363755
804.171	0.0266549
813.813	0.0223199
823.455	0.0223362
833.098	0.0231857
842.74	0.0246545
852.382	0.0276493
862.025	0.0313903
871.667	0.0355467
881.309	0.0412303
890.952	0.049573
900.594	0.0607904
910.236	0.0791915
919.879	0.108746
929.521	0.150279
939.163	0.194402
948.806	0.225242
958.448	0.19895
968.09	0.154299
977.733	0.142906
987.375	0.184036
997.017	0.23721
1006.66	0.266458
1016.3	0.274595
1025.94	0.264471
1035.59	0.255024
1045.23	0.229569
1054.87	0.192965
1064.51	0.157983
1074.16	0.148654
1083.8	0.14614
1093.44	0.131253
1103.08	0.108379
1112.72	0.0876822
1122.37	0.0721883
1132.01	0.0597226
1141.65	0.0499957
1151.3	0.0443249
1160.94	0.0407252
1170.58	0.0366294
1180.22	0.0296657
1189.86	0.0227137
1199.51	0.0172992
1209.15	0.013244
1218.79	0.0102204
1228.43	0.00799027
1238.08	0.00640368
1247.72	0.00562482
1257.36	0.00452126
1267	0.00392315
1276.64	0.00332224
1286.29	0.00312526
1295.93	0.00314058
1305.57	0.0023144
1315.21	0.0020769
1324.86	0.00208588
1334.5	0.00189982
1344.14	0.00187313
1353.78	0.00173868
1363.43	0.00167024
1373.07	0.00197082
1382.71	0.00185931
1392.35	0.00201364
1401.99	0.00212169
1411.64	0.00223527
1421.28	0.00214866
1430.92	0.00266523
1440.57	0.00256393
1450.21	0.00239888
1459.85	0.00224365
1469.49	0.00192011
1479.13	0.00203806
1488.78	0.0023378
1498.42	0.00265993
1508.06	0.00249955
1517.7	0.00292908
1527.35	0.0025649
1536.99	0.00300279
1546.63	0.0034603
1556.27	0.00372882
1565.91	0.00450112
1575.56	0.00491075
1585.2	0.00640969
1594.84	0.00775522
1604.48	0.0114507
1614.13	0.0161831
1623.77	0.0217133
1633.41	0.0253425
1643.05	0.0297042
1652.7	0.0318564
1662.34	0.0280763
1671.98	0.0187043
1681.62	0.0103749
1691.27	0.00598127
1700.91	0.00306388
1710.55	0.00218233
1720.19	0.00127879
1729.84	0.00122577
1739.48	0.000446312
1749.12	2.94606e-05
1758.76	9.6477e-05
1768.4	0.000783356
1778.05	0.00016301
1787.69	0.000979133
1797.33	4.48692e-05
1806.97	0.000206455
1816.62	-0.000869201
1826.26	-0.00087552
1835.9	-0.00054621
1845.54	-0.000610687
1855.18	-0.00136234
1864.83	-0.00121278
1874.47	-0.000739531
1884.11	-0.00139525
1893.75	-0.00259737
1903.4	-0.00126741
1913.04	-0.00035642
1922.68	-0.00131354
1932.32	-0.000263049
1941.97	-0.00343953
1951.61	-0.00126811
1961.25	-0.00180688
1970.89	-0.00155209
1980.54	-0.000355482
1990.18	-0.00340145
1999.82	-0.00206643
2009.46	-0.00375433
2019.11	-0.00155282
2028.75	-0.00343511
2038.39	-0.00263453
2048.03	0.000206469
2057.67	-0.00218384
2067.32	-0.000278135
2076.96	0.00118983
2086.6	-7.69111e-05
2096.24	-0.00120012
2105.89	-0.00151545
2115.53	-0.000399663
2125.17	0.000339636
2134.81	-0.00273655
2144.45	-0.0011961
2154.1	0.000666244
2163.74	0.00316004
2173.38	-0.00137061
2183.02	0.00317111
2192.67	-0.000294489
2202.31	0.00232093
2211.95	4.53047e-05
2221.59	-0.00369712
2231.24	0.00240547
2240.88	-1.44921e-05
2250.52	0.00489773
2260.16	0.000318277
2269.8	0.00058915
2279.45	0.00484292
2289.09	0.00469193
2298.73	0.00238569
2308.38	0.00221251
2318.02	0.00221678
2327.66	0.00249678
2337.3	0.00197312
2346.94	0.000656329
2356.59	0.000925806
2366.23	0.000484264
2375.87	0.00253861
2385.51	0.00183518
2395.16	0.00117424
2404.8	0.00111504
2414.44	0.000420247
2424.08	0.00265748
2433.72	0.00203145
2443.37	0.0022265
2453.01	0.00251437
2462.65	0.000978966
2472.29	0.000872125
2481.94	0.000878015
2491.58	0.00328722
2501.22	0.00337577
2510.86	0.00145223
2520.51	0.00382047
2530.15	0.00067945
2539.79	0.00272732
2549.43	0.0027029
2559.07	0.00355112
2568.72	0.00232943
2578.36	0.000487224
2588	0.00278361
2597.64	0.00374464
2607.29	0.00363222
2616.93	0.00329123
2626.57	0.00334059
2636.21	0.00352918
2645.86	0.00333737
2655.5	0.0034073
2665.14	0.00307724
2674.78	0.00366892
2684.43	0.00362235
2694.07	0.00370045
2703.71	0.00323345
2713.35	0.00371907
2722.99	0.00363019
2732.64	0.00318766
2742.28	0.00343043
2751.92	0.00450671
2761.56	0.0046633
2771.21	0.00576278
2780.85	0.00430606
2790.49	0.00494173
2800.13	0.00553455
2809.78	0.00543364
2819.42	0.00548458
2829.06	0.00506381
2838.7	0.00542434
2848.34	0.00359451
2857.99	0.00491664
2867.63	0.00731083
2877.27	0.00705028
2886.91	0.0054521
2896.56	0.006163
2906.2	0.00797067
2915.84	0.0058715
2925.48	0.00616103
2935.13	0.00867338
2944.77	0.00868895
2954.41	0.011357
2964.05	0.0104367
2973.7	0.009792
2983.34	0.0110814
2992.98	0.0113828
3002.62	0.0110282
3012.26	0.010438
3021.91	0.0128234
3031.55	0.0116628
3041.19	0.0112864
3050.83	0.0133908
3060.48	0.0132139
3070.12	0.0130321
3079.76	0.0154078
3089.4	0.0122237
3099.05	0.0132609
3108.69	0.0163963
3118.33	0.0140794
3127.97	0.0163138
3137.61	0.0195162
3147.26	0.0173627
3156.9	0.0184361
3166.54	0.0206285
3176.18	0.0204798
3185.83	0.02321
3195.47	0.0259286
3205.11	0.0251996
3214.75	0.0274802
3224.4	0.0270426
3234.04	0.0280288
3243.68	0.0283203
3253.32	0.0296645
3262.97	0.0298006
3272.61	0.0298612
3282.25	0.0303502
3291.89	0.0277178
3301.53	0.0320245
3311.18	0.0289759
3320.82	0.035954
3330.46	0.0327932
3340.1	0.0367604
3349.75	0.0359818
3359.39	0.0394555
3369.03	0.0372282
3378.67	0.0405326
3388.32	0.0423047
3397.96	0.0406435
3407.6	0.0439941
3417.24	0.0448817
3426.89	0.0427012
3436.53	0.0429999
3446.17	0.0419041
3455.81	0.0389592
3465.45	0.0419105
3475.1	0.0396136
3484.74	0.0432308
3494.38	0.038584
3504.02	0.0395269
3513.67	0.0355113
3523.31	0.034495
3532.95	0.0335379
3542.59	0.0300071
3552.24	0.0273245
3561.88	0.0267835
3571.52	0.024358
3581.16	0.0224349
3590.8	0.019112
3600.45	0.0180577
3610.09	0.0169984
3619.73	0.0124446
3629.37	0.015965
3639.02	0.0115966
3648.66	0.00286818
3658.3	0.00717872
3667.94	0.00434839
3677.59	-0.00358638
3687.23	0.00169159
3696.87	5.30488e-05
3706.51	0.00144666
3716.16	0.000729791
3725.8	-0.000705341
3735.44	0.00364404
3745.08	0.00405656
3754.72	-0.00143549
3764.37	0.000676704
3774.01	-0.00217932
3783.65	0.000961785
3793.29	0.000238935
3802.94	-0.000497615
3812.58	-0.00442649
3822.22	-0.00139007
3831.86	-0.00158873
3841.51	-0.000927844
3851.15	-0.00345943
3860.79	-3.95859e-06
3870.43	-0.00159613
3880.07	-0.00248484
3889.72	-0.00379467
3899.36	0.000682589
3909	-0.000364793
3918.64	-0.00180039
3928.29	0.000375022
3937.93	-0.000317781
3947.57	-8.98861e-05
3957.21	-0.000304653
3966.86	-0.00110309
3976.5	-0.00472544
3986.14	-0.00104569
3995.78	-0.000652167
