Measurement: Infrared, Infrared Data Processed
Mineral: Livingstonite
Rruff sample: R050453
Ideal chemistry: HgSb_4_S_8_
Locality: Huitzuco, Guerrero, Mexico
Source: University of Arizona Mineral Museum
Description: Aggregate of gray columnar crystals
Measured chemistry: Hg_1.00_Sb_4.00_S_8.00_
x	intensity
374.123	0.208316
383.765	0.177381
393.407	0.240562
403.05	0.270837
412.692	0.310355
422.334	0.336155
431.976	0.359352
441.619	0.379017
451.261	0.398852
460.904	0.412039
470.546	0.419525
480.188	0.425809
489.83	0.432268
499.473	0.447163
509.115	0.457579
518.758	0.467369
528.4	0.474807
538.042	0.484951
547.684	0.491672
557.327	0.50034
566.969	0.506552
576.611	0.513249
586.254	0.524702
595.896	0.532882
605.538	0.541134
615.181	0.55051
624.823	0.559545
634.466	0.567306
644.108	0.574556
653.75	0.581707
663.393	0.590052
673.035	0.60085
682.677	0.611333
692.319	0.62094
701.962	0.620448
711.604	0.628797
721.246	0.636134
730.889	0.646788
740.531	0.655063
750.173	0.662286
759.816	0.666812
769.458	0.6718
779.101	0.678267
788.743	0.680575
798.385	0.685726
808.028	0.682448
817.67	0.683734
827.312	0.693719
836.955	0.698301
846.597	0.707009
856.239	0.712796
865.881	0.722716
875.524	0.731046
885.166	0.737283
894.808	0.74554
904.451	0.751038
914.093	0.760365
923.736	0.768
933.378	0.774618
943.02	0.783121
952.663	0.789813
962.305	0.798584
971.947	0.80491
981.59	0.813336
991.232	0.820371
1000.87	0.827211
1010.52	0.835744
1020.16	0.842196
1029.8	0.848284
1039.44	0.853411
1049.09	0.85614
1058.73	0.860742
1068.37	0.863803
1078.01	0.868117
1087.65	0.869738
1097.3	0.870841
1106.94	0.873831
1116.58	0.877038
1126.22	0.881933
1135.87	0.890441
1145.51	0.899624
1155.15	0.899355
1164.79	0.900259
1174.44	0.89847
1184.08	0.900547
1193.72	0.905885
1203.36	0.908123
1213.01	0.908009
1222.65	0.91001
1232.29	0.91282
1241.93	0.916038
1251.58	0.918871
1261.22	0.920433
1270.86	0.924584
1280.5	0.928421
1290.14	0.93259
1299.79	0.936793
1309.43	0.940272
1319.07	0.94423
1328.71	0.948728
1338.36	0.954238
1348	0.960776
1357.64	0.96611
1367.28	0.972259
1376.92	0.979903
1386.57	0.979174
1396.21	0.983215
1405.85	0.988002
1415.49	0.994062
1425.14	0.999556
1434.78	1.00628
1444.42	1.01333
1454.06	1.02061
1463.71	1.02398
1473.35	1.01881
1482.99	1.01935
1492.63	1.02324
1502.28	1.02774
1511.92	1.0303
1521.56	1.03559
1531.2	1.04008
1540.85	1.04442
1550.49	1.04808
1560.13	1.05397
1569.77	1.05806
1579.41	1.06373
1589.06	1.06858
1598.7	1.07382
1608.34	1.07652
1617.98	1.08178
1627.63	1.08597
1637.27	1.09011
1646.91	1.0944
1656.55	1.09779
1666.19	1.10261
1675.84	1.10665
1685.48	1.11072
1695.12	1.11658
1704.77	1.12178
1714.41	1.12705
1724.05	1.13202
1733.69	1.13703
1743.33	1.13606
1752.98	1.13298
1762.62	1.13489
1772.26	1.1375
1781.9	1.14094
1791.55	1.14231
1801.19	1.14474
1810.83	1.14618
1820.47	1.14755
1830.12	1.15011
1839.76	1.15384
1849.4	1.15474
1859.04	1.15806
1868.68	1.16031
1878.33	1.1616
1887.97	1.1662
1897.61	1.16951
1907.25	1.1748
1916.9	1.17907
1926.54	1.17558
1936.18	1.17955
1945.82	1.18187
1955.46	1.18334
1965.11	1.19253
1974.75	1.19181
1984.39	1.20068
1994.04	1.20809
2003.68	1.20307
2013.32	1.21488
2022.96	1.21252
2032.6	1.22483
2042.25	1.22777
2051.89	1.23219
2061.53	1.23052
2071.17	1.23889
2080.82	1.2444
2090.46	1.24953
2100.1	1.25573
2109.74	1.25454
2119.39	1.25952
2129.03	1.26797
2138.67	1.27069
2148.31	1.27692
2157.95	1.28427
2167.6	1.28209
2177.24	1.28041
2186.88	1.28485
2196.52	1.29069
2206.17	1.29109
2215.81	1.29685
2225.45	1.30034
2235.09	1.31117
2244.74	1.31164
2254.38	1.31415
2264.02	1.31768
2273.66	1.32856
2283.3	1.32719
2292.95	1.33056
2302.59	1.33847
2312.23	1.3393
2321.87	1.34354
2331.52	1.34748
2341.16	1.3509
2350.8	1.35538
2360.44	1.35643
2370.09	1.36329
2379.73	1.36684
2389.37	1.37164
2399.01	1.37164
2408.66	1.3767
2418.3	1.37927
2427.94	1.38202
2437.58	1.38245
2447.22	1.38583
2456.87	1.39026
2466.51	1.39442
2476.15	1.39712
2485.79	1.40215
2495.44	1.40402
2505.08	1.40874
2514.72	1.41208
2524.36	1.41453
2534.01	1.41814
2543.65	1.42294
2553.29	1.42771
2562.93	1.43093
2572.57	1.43654
2582.22	1.4423
2591.86	1.44531
2601.5	1.44966
2611.14	1.45453
2620.79	1.46023
2630.43	1.46513
2640.07	1.47022
2649.71	1.47612
2659.36	1.48075
2669	1.4841
2678.64	1.48824
2688.28	1.49144
2697.93	1.49539
2707.57	1.49831
2717.21	1.50199
2726.85	1.50561
2736.49	1.50899
2746.14	1.51328
2755.78	1.51608
2765.42	1.52008
2775.06	1.52283
2784.71	1.52733
2794.35	1.53147
2803.99	1.53668
2813.63	1.54129
2823.28	1.5483
2832.92	1.55774
2842.56	1.57122
2852.2	1.58389
2861.84	1.57981
2871.49	1.58221
2881.13	1.58343
2890.77	1.59405
2900.41	1.60297
2910.06	1.61222
2919.7	1.62116
2929.34	1.61873
2938.98	1.60896
2948.62	1.61115
2958.27	1.61297
2967.91	1.60386
2977.55	1.59671
2987.2	1.59573
2996.84	1.59654
3006.48	1.59985
3016.12	1.60229
3025.76	1.60639
3035.41	1.61058
3045.05	1.61363
3054.69	1.618
3064.33	1.62171
3073.98	1.62449
3083.62	1.62854
3093.26	1.63043
3102.9	1.63458
3112.55	1.63866
3122.19	1.64078
3131.83	1.64485
3141.47	1.64968
3151.11	1.65422
3160.76	1.65744
3170.4	1.66037
3180.04	1.66289
3189.68	1.6681
3199.33	1.67087
3208.97	1.67394
3218.61	1.67869
3228.25	1.68083
3237.9	1.68597
3247.54	1.68959
3257.18	1.69199
3266.82	1.69642
3276.47	1.69861
3286.11	1.70363
3295.75	1.70752
3305.39	1.71005
3315.03	1.71402
3324.68	1.71803
3334.32	1.71979
3343.96	1.72408
3353.6	1.72557
3363.25	1.72893
3372.89	1.73249
3382.53	1.73445
3392.17	1.73812
3401.82	1.74007
3411.46	1.74416
3421.1	1.74739
3430.74	1.75056
3440.39	1.75204
3450.03	1.75516
3459.67	1.75947
3469.31	1.76005
3478.95	1.76342
3488.6	1.7696
3498.24	1.77004
3507.88	1.77151
3517.52	1.77648
3527.17	1.77717
3536.81	1.7827
3546.45	1.78291
3556.09	1.7856
3565.74	1.78946
3575.38	1.79135
3585.02	1.79326
3594.66	1.79871
3604.3	1.79992
3613.95	1.80134
3623.59	1.80547
3633.23	1.81021
3642.87	1.81471
3652.52	1.81532
3662.16	1.81695
3671.8	1.82284
3681.44	1.82357
3691.09	1.8259
3700.73	1.83073
3710.37	1.83136
3720.01	1.83603
3729.66	1.84344
3739.3	1.84587
3748.94	1.84836
3758.58	1.84771
3768.22	1.85142
3777.87	1.85402
3787.51	1.85892
3797.15	1.86217
3806.79	1.86689
3816.44	1.86784
3826.08	1.87027
3835.72	1.87408
3845.36	1.87553
3855.01	1.88258
3864.65	1.88426
3874.29	1.88552
3883.93	1.88986
3893.57	1.89177
3903.22	1.8983
3912.86	1.89981
3922.5	1.90343
3932.14	1.90669
3941.79	1.90879
3951.43	1.91129
3961.07	1.91225
3970.71	1.9157
3980.36	1.91881
3990	1.92479
3999.64	1.92504
