Measurement: Infrared, Infrared Data Processed
Mineral: Livingstonite
Rruff sample: R050427
Ideal chemistry: HgSb_4_S_8_
Locality: Huitzuco, Guerrero, Mexico
Source: University of Arizona Mineral Museum
Description: Aggregate of blackish-gray elongated crystals
Measured chemistry: Hg_1.00_Sb_4.00_S_8.00_
x	intensity
399.193	0.206422
408.835	0.228689
418.477	0.248273
428.12	0.259691
437.762	0.279081
447.404	0.286035
457.047	0.299413
466.689	0.307272
476.331	0.31954
485.974	0.328643
495.616	0.335185
505.258	0.344225
514.901	0.354056
524.543	0.360498
534.185	0.369447
543.828	0.379788
553.47	0.390667
563.112	0.39308
572.755	0.402653
582.397	0.41162
592.039	0.428043
601.682	0.42469
611.324	0.435403
620.966	0.428272
630.609	0.432369
640.251	0.439023
649.893	0.443126
659.536	0.450924
669.178	0.466145
678.82	0.47015
688.463	0.463761
698.105	0.466494
707.747	0.472744
717.39	0.478078
727.032	0.483635
736.674	0.490024
746.317	0.496541
755.959	0.503645
765.601	0.508146
775.244	0.513338
784.886	0.518159
794.528	0.523867
804.171	0.530629
813.813	0.536716
823.455	0.543128
833.098	0.549048
842.74	0.552868
852.382	0.556242
862.025	0.56
871.667	0.567013
881.309	0.573345
890.952	0.577778
900.594	0.582757
910.236	0.58875
919.879	0.594939
929.521	0.601572
939.163	0.607636
948.806	0.614232
958.448	0.619643
968.09	0.625666
977.733	0.6332
987.375	0.639246
997.017	0.646086
1006.66	0.654432
1016.3	0.663039
1025.94	0.666121
1035.59	0.673735
1045.23	0.681429
1054.87	0.687212
1064.51	0.695905
1074.16	0.704086
1083.8	0.714235
1093.44	0.724142
1103.08	0.736809
1112.72	0.746028
1122.37	0.750494
1132.01	0.754595
1141.65	0.762401
1151.3	0.763534
1160.94	0.752504
1170.58	0.743821
1180.22	0.739092
1189.86	0.737626
1199.51	0.734761
1209.15	0.732467
1218.79	0.737638
1228.43	0.740712
1238.08	0.742524
1247.72	0.746024
1257.36	0.746723
1267	0.75004
1276.64	0.754314
1286.29	0.759545
1295.93	0.763179
1305.57	0.764965
1315.21	0.767936
1324.86	0.773329
1334.5	0.77845
1344.14	0.783612
1353.78	0.789597
1363.43	0.795124
1373.07	0.799082
1382.71	0.802444
1392.35	0.80543
1401.99	0.810137
1411.64	0.814985
1421.28	0.817849
1430.92	0.824519
1440.57	0.830878
1450.21	0.837677
1459.85	0.843234
1469.49	0.843516
1479.13	0.8446
1488.78	0.848105
1498.42	0.854403
1508.06	0.858472
1517.7	0.861749
1527.35	0.865156
1536.99	0.870678
1546.63	0.875378
1556.27	0.878962
1565.91	0.883868
1575.56	0.889247
1585.2	0.894582
1594.84	0.899444
1604.48	0.903057
1614.13	0.909037
1623.77	0.914083
1633.41	0.915955
1643.05	0.920551
1652.7	0.923736
1662.34	0.927957
1671.98	0.931276
1681.62	0.936304
1691.27	0.939462
1700.91	0.94239
1710.55	0.944984
1720.19	0.950596
1729.84	0.953722
1739.48	0.954815
1749.12	0.957082
1758.76	0.960458
1768.4	0.963159
1778.05	0.966353
1787.69	0.967847
1797.33	0.96992
1806.97	0.972183
1816.62	0.97352
1826.26	0.97813
1835.9	0.980516
1845.54	0.98587
1855.18	0.986926
1864.83	0.98912
1874.47	0.991625
1884.11	0.996161
1893.75	0.999196
1903.4	1.00225
1913.04	1.0015
1922.68	1.00486
1932.32	1.00147
1941.97	1.00003
1951.61	0.993556
1961.25	0.987737
1970.89	0.980936
1980.54	0.986818
1990.18	0.992025
1999.82	1.00324
2009.46	0.997878
2019.11	1.00257
2028.75	0.996544
2038.39	1.01948
2048.03	1.02315
2057.67	1.04255
2067.32	1.05084
2076.96	1.0691
2086.6	1.06741
2096.24	1.07404
2105.89	1.07874
2115.53	1.08292
2125.17	1.08265
2134.81	1.07426
2144.45	1.06747
2154.1	1.04526
2163.74	1.0487
2173.38	1.06841
2183.02	1.07728
2192.67	1.08886
2202.31	1.10081
2211.95	1.109
2221.59	1.11374
2231.24	1.11904
2240.88	1.1254
2250.52	1.14074
2260.16	1.14501
2269.8	1.1585
2279.45	1.16249
2289.09	1.17152
2298.73	1.17881
2308.38	1.18735
2318.02	1.19327
2327.66	1.20267
2337.3	1.21033
2346.94	1.20956
2356.59	1.21559
2366.23	1.21734
2375.87	1.21776
2385.51	1.2179
2395.16	1.22449
2404.8	1.22611
2414.44	1.22554
2424.08	1.23352
2433.72	1.23674
2443.37	1.24335
2453.01	1.24495
2462.65	1.25266
2472.29	1.25372
2481.94	1.25852
2491.58	1.26322
2501.22	1.26504
2510.86	1.27036
2520.51	1.27739
2530.15	1.28107
2539.79	1.28572
2549.43	1.28559
2559.07	1.29645
2568.72	1.29883
2578.36	1.30635
2588	1.30926
2597.64	1.31406
2607.29	1.31831
2616.93	1.32551
2626.57	1.33398
2636.21	1.33788
2645.86	1.34454
2655.5	1.34988
2665.14	1.35321
2674.78	1.35608
2684.43	1.36221
2694.07	1.36837
2703.71	1.37021
2713.35	1.37538
2722.99	1.37673
2732.64	1.38276
2742.28	1.38661
2751.92	1.39425
2761.56	1.39699
2771.21	1.39991
2780.85	1.40559
2790.49	1.4099
2800.13	1.41966
2809.78	1.41822
2819.42	1.42701
2829.06	1.43412
2838.7	1.44097
2848.34	1.44442
2857.99	1.44511
2867.63	1.45295
2877.27	1.45839
2886.91	1.465
2896.56	1.47336
2906.2	1.47848
2915.84	1.47797
2925.48	1.47378
2935.13	1.47595
2944.77	1.48241
2954.41	1.49353
2964.05	1.48894
2973.7	1.48768
2983.34	1.49474
2992.98	1.49613
3002.62	1.50038
3012.26	1.50222
3021.91	1.50756
3031.55	1.51836
3041.19	1.51911
3050.83	1.52227
3060.48	1.52911
3070.12	1.53422
3079.76	1.53823
3089.4	1.53929
3099.05	1.54999
3108.69	1.55354
3118.33	1.56177
3127.97	1.56923
3137.61	1.56709
3147.26	1.56886
3156.9	1.58282
3166.54	1.58281
3176.18	1.5944
3185.83	1.59311
3195.47	1.60592
3205.11	1.60397
3214.75	1.60939
3224.4	1.61782
3234.04	1.62027
3243.68	1.63525
3253.32	1.63761
3262.97	1.64094
3272.61	1.64666
3282.25	1.65651
3291.89	1.66071
3301.53	1.65771
3311.18	1.6659
3320.82	1.67002
3330.46	1.6804
3340.1	1.68155
3349.75	1.68837
3359.39	1.69834
3369.03	1.69688
3378.67	1.70406
3388.32	1.71213
3397.96	1.71618
3407.6	1.72055
3417.24	1.73053
3426.89	1.72488
3436.53	1.72924
3446.17	1.74275
3455.81	1.73965
3465.45	1.74603
3475.1	1.752
3484.74	1.76533
3494.38	1.77059
3504.02	1.77209
3513.67	1.77452
3523.31	1.79039
3532.95	1.79413
3542.59	1.79838
3552.24	1.79363
3561.88	1.80312
3571.52	1.8085
3581.16	1.80089
3590.8	1.80962
3600.45	1.81798
3610.09	1.82761
3619.73	1.82491
3629.37	1.82607
3639.02	1.82547
3648.66	1.83657
3658.3	1.83552
3667.94	1.84529
3677.59	1.86522
3687.23	1.86063
3696.87	1.86851
3706.51	1.87193
3716.16	1.87831
3725.8	1.895
3735.44	1.89887
3745.08	1.90138
3754.72	1.91138
3764.37	1.91736
3774.01	1.92617
3783.65	1.92633
3793.29	1.92384
3802.94	1.94624
3812.58	1.93535
3822.22	1.93937
3831.86	1.95274
3841.51	1.95844
3851.15	1.97253
3860.79	1.96125
3870.43	1.98703
3880.07	1.97975
3889.72	1.99971
3899.36	1.99684
3909	1.99728
3918.64	2.01273
3928.29	2.01739
3937.93	2.03506
3947.57	2.03406
3957.21	2.035
3966.86	2.05285
3976.5	2.05757
3986.14	2.06552
3995.78	2.07171
