Measurement: Infrared, Infrared Data Processed
Mineral: Magnesite
Rruff sample: R050443
Ideal chemistry: MgCO_3_
Locality: Brumado, Bahia, Brazil
Source: Eugene Schlepp
Description: Group of colorless crystals
Measured chemistry: Mg_1.00_CO_3_
x	intensity
399.193	0
408.835	0.14384
418.477	0.122464
428.12	0.0994429
437.762	0.0773304
447.404	0.0632447
457.047	0.0483611
466.689	0.034058
476.331	0.0235311
485.974	0.0165093
495.616	0.0145317
505.258	0.012841
514.901	0.012365
524.543	0.0119923
534.185	0.0112202
543.828	0.0104411
553.47	0.0105621
563.112	0.0113272
572.755	0.0114092
582.397	0.0115841
592.039	0.0115295
601.682	0.011132
611.324	0.0110084
620.966	0.0105008
630.609	0.00971416
640.251	0.00935438
649.893	0.00986985
659.536	0.0100231
669.178	0.0103775
678.82	0.0109752
688.463	0.0116217
698.105	0.0123314
707.747	0.0138913
717.39	0.0154436
727.032	0.0197914
736.674	0.0365752
746.317	0.136685
755.959	0.0328913
765.601	0.0117122
775.244	0.00998415
784.886	0.0105365
794.528	0.0107898
804.171	0.0116455
813.813	0.0133708
823.455	0.0158407
833.098	0.0191954
842.74	0.0275503
852.382	0.0528458
862.025	0.0782483
871.667	0.179555
881.309	0.262472
890.952	0.177074
900.594	0.0553318
910.236	0.0172157
919.879	0.0157739
929.521	0.016028
939.163	0.0163814
948.806	0.0169031
958.448	0.0178164
968.09	0.0183175
977.733	0.0189907
987.375	0.020159
997.017	0.0209392
1006.66	0.0218466
1016.3	0.0234834
1025.94	0.0248631
1035.59	0.0263797
1045.23	0.0277539
1054.87	0.0295085
1064.51	0.0312655
1074.16	0.0334987
1083.8	0.0365719
1093.44	0.0385554
1103.08	0.040358
1112.72	0.0406727
1122.37	0.042384
1132.01	0.0452504
1141.65	0.0478514
1151.3	0.050209
1160.94	0.0528686
1170.58	0.0558646
1180.22	0.0606889
1189.86	0.0647739
1199.51	0.0691589
1209.15	0.0741634
1218.79	0.0803354
1228.43	0.0853825
1238.08	0.0909308
1247.72	0.0962248
1257.36	0.101426
1267	0.107673
1276.64	0.11742
1286.29	0.126912
1295.93	0.138667
1305.57	0.151297
1315.21	0.165899
1324.86	0.182159
1334.5	0.20066
1344.14	0.222351
1353.78	0.248226
1363.43	0.277086
1373.07	0.302865
1382.71	0.339135
1392.35	0.383563
1401.99	0.438792
1411.64	0.497046
1421.28	0.532016
1430.92	0.562066
1440.57	0.528866
1450.21	0.483595
1459.85	0.438862
1469.49	0.394506
1479.13	0.353367
1488.78	0.314348
1498.42	0.278095
1508.06	0.244918
1517.7	0.214569
1527.35	0.183884
1536.99	0.154563
1546.63	0.127634
1556.27	0.103374
1565.91	0.0815751
1575.56	0.0598222
1585.2	0.0358332
1594.84	0.0135572
1604.48	0.0101281
1614.13	0.0106608
1623.77	0.0104547
1633.41	0.00973768
1643.05	0.00803121
1652.7	0.0059999
1662.34	0.0056539
1671.98	0.00522024
1681.62	0.0050972
1691.27	0.00509175
1700.91	0.00490185
1710.55	0.00434557
1720.19	0.00414176
1729.84	0.00325112
1739.48	0.00275391
1749.12	0.00257498
1758.76	0.00268908
1768.4	0.00293664
1778.05	0.00326262
1787.69	0.00409644
1797.33	0.00495375
1806.97	0.00728265
1816.62	0.00966142
1826.26	0.0117971
1835.9	0.0104124
1845.54	0.00753145
1855.18	0.00556297
1864.83	0.00345566
1874.47	0.0039742
1884.11	0.00225159
1893.75	0.00234862
1903.4	0.00301075
1913.04	0.00386121
1922.68	0.00252752
1932.32	0.00169089
1941.97	0.00213226
1951.61	0.00372412
1961.25	0.0025472
1970.89	0.00141739
1980.54	0.00457009
1990.18	0.00193431
1999.82	0.00162871
2009.46	0.00274001
2019.11	0.00404717
2028.75	0.00377182
2038.39	0.00703814
2048.03	0.00607421
2057.67	0.00379633
2067.32	0.0029503
2076.96	0.00543695
2086.6	0.00500021
2096.24	0.00510657
2105.89	0.00463323
2115.53	0.00531809
2125.17	0.00186425
2134.81	0.00117373
2144.45	0.00191637
2154.1	0.00146416
2163.74	0.00519932
2173.38	0.00412672
2183.02	0.00641458
2192.67	0.00574463
2202.31	0.00625202
2211.95	0.00594775
2221.59	0.00636287
2231.24	0.00589415
2240.88	0.00600825
2250.52	0.00498883
2260.16	0.00706261
2269.8	0.00672178
2279.45	0.00715597
2289.09	0.00728972
2298.73	0.00757003
2308.38	0.00762481
2318.02	0.00782063
2327.66	0.0061333
2337.3	0.00646816
2346.94	0.00631831
2356.59	0.00557295
2366.23	0.00475972
2375.87	0.00568421
2385.51	0.00518085
2395.16	0.00506503
2404.8	0.00671178
2414.44	0.00547903
2424.08	0.00633524
2433.72	0.00567339
2443.37	0.00695482
2453.01	0.00694436
2462.65	0.00702522
2472.29	0.00653411
2481.94	0.00665539
2491.58	0.00655582
2501.22	0.0080616
2510.86	0.00985057
2520.51	0.0128603
2530.15	0.0151506
2539.79	0.0150229
2549.43	0.0157209
2559.07	0.0133632
2568.72	0.0131748
2578.36	0.00968423
2588	0.00943476
2597.64	0.0102634
2607.29	0.0101595
2616.93	0.00932273
2626.57	0.00913382
2636.21	0.00995015
2645.86	0.00914772
2655.5	0.00926836
2665.14	0.00762602
2674.78	0.00653748
2684.43	0.00644199
2694.07	0.00547699
2703.71	0.00539262
2713.35	0.00447124
2722.99	0.00606047
2732.64	0.00534717
2742.28	0.00476592
2751.92	0.0050496
2761.56	0.00553307
2771.21	0.00410583
2780.85	0.00486351
2790.49	0.00396597
2800.13	0.00417817
2809.78	0.0033201
2819.42	0.00325557
2829.06	0.00349556
2838.7	0.00351159
2848.34	0.00279597
2857.99	0.00301951
2867.63	0.00399929
2877.27	0.00571768
2886.91	0.00582538
2896.56	0.00643331
2906.2	0.00718299
2915.84	0.00819094
2925.48	0.00647359
2935.13	0.00649506
2944.77	0.00664703
2954.41	0.00537299
2964.05	0.00552528
2973.7	0.00757506
2983.34	0.00687893
2992.98	0.00858698
3002.62	0.00805592
3012.26	0.00846729
3021.91	0.00835946
3031.55	0.00798273
3041.19	0.00931735
3050.83	0.00928529
3060.48	0.0108581
3070.12	0.0087528
3079.76	0.008441
3089.4	0.0075233
3099.05	0.00868001
3108.69	0.00907628
3118.33	0.0100503
3127.97	0.0108791
3137.61	0.0106573
3147.26	0.0109584
3156.9	0.0135663
3166.54	0.0122588
3176.18	0.0140401
3185.83	0.0140503
3195.47	0.0149914
3205.11	0.0140738
3214.75	0.014114
3224.4	0.0141443
3234.04	0.0150671
3243.68	0.0133632
3253.32	0.0139906
3262.97	0.0163019
3272.61	0.0165852
3282.25	0.0158085
3291.89	0.0164366
3301.53	0.0165075
3311.18	0.0154052
3320.82	0.0151285
3330.46	0.0147129
3340.1	0.0165661
3349.75	0.0162234
3359.39	0.018204
3369.03	0.0170232
3378.67	0.0169354
3388.32	0.0160686
3397.96	0.0171822
3407.6	0.0178692
3417.24	0.0163899
3426.89	0.0170332
3436.53	0.016965
3446.17	0.0173474
3455.81	0.0168635
3465.45	0.0161891
3475.1	0.0165721
3484.74	0.0174169
3494.38	0.018124
3504.02	0.0170019
3513.67	0.0163875
3523.31	0.0162362
3532.95	0.0167248
3542.59	0.0157467
3552.24	0.0161273
3561.88	0.0159387
3571.52	0.0167166
3581.16	0.0165439
3590.8	0.0142653
3600.45	0.017181
3610.09	0.0163795
3619.73	0.0140319
3629.37	0.0153547
3639.02	0.0140094
3648.66	0.0153588
3658.3	0.0148062
3667.94	0.0145743
3677.59	0.0168946
3687.23	0.0154823
3696.87	0.0133943
3706.51	0.0159033
3716.16	0.0147194
3725.8	0.0163502
3735.44	0.0132165
3745.08	0.0123774
3754.72	0.0156148
3764.37	0.0160264
3774.01	0.0146258
3783.65	0.0179599
3793.29	0.0165258
3802.94	0.0157197
3812.58	0.018577
3822.22	0.0179703
3831.86	0.0146773
3841.51	0.0199505
3851.15	0.0173548
3860.79	0.0140765
3870.43	0.0181878
3880.07	0.0164135
3889.72	0.017389
3899.36	0.0155444
3909	0.0160041
3918.64	0.0142753
3928.29	0.0150788
3937.93	0.0122333
3947.57	0.018322
3957.21	0.0138606
3966.86	0.014661
3976.5	0.0170195
3986.14	0.0190656
3995.78	0.015996
