Measurement: Infrared, Infrared Data Processed
Mineral: Marialite
Rruff sample: R050123
Ideal chemistry: Na_4_Al_3_Si_9_O_24_Cl
Locality: Pakistan
Source: Syed Shah
Description: Purple fragment
Measured chemistry: (Na_0.88_Ca_0.07_K_0.05_)_4_Al_3.00_Si_9.00_O_24_Cl_0.97
x	intensity
374.123	0.121407
383.765	0.136716
393.407	0.164815
403.05	0.170052
412.692	0.184569
422.334	0.170423
431.976	0.140382
441.619	0.144647
451.261	0.153003
460.904	0.133169
470.546	0.0933441
480.188	0.0497824
489.83	0.0340036
499.473	0.0326084
509.115	0.0427228
518.758	0.0682192
528.4	0.099903
538.042	0.137924
547.684	0.143131
557.327	0.102736
566.969	0.0591223
576.611	0.0284788
586.254	0.023612
595.896	0.0241043
605.538	0.0294324
615.181	0.0548681
624.823	0.0974206
634.466	0.0445059
644.108	0.0232427
653.75	0.0203998
663.393	0.0199851
673.035	0.0223586
682.677	0.0269055
692.319	0.0335916
701.962	0.0437884
711.604	0.0497199
721.246	0.0471505
730.889	0.0440074
740.531	0.0430015
750.173	0.0433835
759.816	0.0556106
769.458	0.0497403
779.101	0.0296855
788.743	0.0195611
798.385	0.0171793
808.028	0.0173369
817.67	0.0186571
827.312	0.0203186
836.955	0.022751
846.597	0.0255034
856.239	0.0288546
865.881	0.0333713
875.524	0.0383138
885.166	0.0450248
894.808	0.0531178
904.451	0.0629489
914.093	0.0745874
923.736	0.0891756
933.378	0.107371
943.02	0.129097
952.663	0.14907
962.305	0.166995
971.947	0.187418
981.59	0.200348
991.232	0.20343
1000.87	0.207458
1010.52	0.210105
1020.16	0.21037
1029.8	0.212051
1039.44	0.209178
1049.09	0.196352
1058.73	0.163226
1068.37	0.127828
1078.01	0.106925
1087.65	0.0992805
1097.3	0.0962125
1106.94	0.0927605
1116.58	0.0934216
1126.22	0.0971036
1135.87	0.0924396
1145.51	0.0781388
1155.15	0.0619085
1164.79	0.0443857
1174.44	0.0454755
1184.08	0.0724088
1193.72	0.0857059
1203.36	0.066756
1213.01	0.0458994
1222.65	0.0286414
1232.29	0.0154383
1241.93	0.0081084
1251.58	0.00506174
1261.22	0.00305099
1270.86	0.00188873
1280.5	0.0011765
1290.14	0.000478508
1299.79	0.000372008
1309.43	0.000381367
1319.07	8.16489e-05
1328.71	6.06265e-05
1338.36	-0.000130183
1348	-1.98754e-05
1357.64	-5.16395e-05
1367.28	-0.000134129
1376.92	-5.10976e-06
1386.57	2.38447e-05
1396.21	0.000332901
1405.85	0.000478673
1415.49	0.000745146
1425.14	0.00104923
1434.78	0.000593344
1444.42	0.000415223
1454.06	0.000328811
1463.71	0.000211246
1473.35	0.000435507
1482.99	0.000251436
1492.63	0.000270289
1502.28	0.000223933
1511.92	0.000278943
1521.56	0.000855549
1531.2	0.00115293
1540.85	0.0019712
1550.49	0.00125464
1560.13	0.00169648
1569.77	0.000831777
1579.41	0.000954526
1589.06	0.000564185
1598.7	0.000683773
1608.34	0.000787923
1617.98	0.00108838
1627.63	0.00106532
1637.27	0.00108576
1646.91	0.00127838
1656.55	0.000772693
1666.19	0.000669925
1675.84	0.000899431
1685.48	0.00105101
1695.12	0.00089173
1704.77	0.000498655
1714.41	0.000299594
1724.05	0.000218591
1733.69	6.39381e-05
1743.33	-0.000265493
1752.98	-2.31168e-05
1762.62	-1.02204e-05
1772.26	0.000127614
1781.9	-0.00014393
1791.55	0.000169138
1801.19	-7.63875e-05
1810.83	-0.000133789
1820.47	-0.000271934
1830.12	-0.000364782
1839.76	-0.000469243
1849.4	-0.000822237
1859.04	-0.000690152
1868.68	-0.000647456
1878.33	-0.00101383
1887.97	-0.00111587
1897.61	-0.00169068
1907.25	-0.0018981
1916.9	-0.00235008
1926.54	-0.00235866
1936.18	-0.00329475
1945.82	-0.00282139
1955.46	-0.003225
1965.11	-0.00470851
1974.75	-0.0052811
1984.39	-0.00407644
1994.04	-0.00525499
2003.68	-0.0055711
2013.32	-0.00496042
2022.96	-0.00566348
2032.6	-0.00608692
2042.25	-0.00569118
2051.89	-0.00474063
2061.53	-0.00446676
2071.17	-0.00596665
2080.82	-0.00450608
2090.46	-0.00594658
2100.1	-0.00489833
2109.74	-0.00572875
2119.39	-0.00533228
2129.03	-0.00741406
2138.67	-0.0064427
2148.31	-0.00675269
2157.95	-0.00589241
2167.6	-0.00225228
2177.24	-0.00269659
2186.88	-0.00167149
2196.52	-0.00200515
2206.17	-0.00285618
2215.81	-0.00286859
2225.45	-0.00156913
2235.09	-0.00230401
2244.74	-0.00273651
2254.38	-0.00310291
2264.02	-0.00281163
2273.66	-0.00261234
2283.3	-0.00199045
2292.95	-0.00236206
2302.59	-0.0029709
2312.23	-0.00143104
2321.87	-0.00118338
2331.52	-0.00180756
2341.16	-0.00179444
2350.8	-0.00237744
2360.44	-0.0019595
2370.09	-0.0031575
2379.73	-0.00326082
2389.37	-0.0037969
2399.01	-0.00355107
2408.66	-0.0034485
2418.3	-0.00302959
2427.94	-0.00268658
2437.58	-0.00314725
2447.22	-0.00193669
2456.87	-0.00126324
2466.51	-0.00177246
2476.15	-0.00187973
2485.79	-0.00131999
2495.44	-0.000732827
2505.08	-0.00165308
2514.72	-0.000294173
2524.36	-0.0013403
2534.01	-0.00110027
2543.65	-0.00118697
2553.29	-0.0006257
2562.93	-0.00105939
2572.57	-0.00137339
2582.22	-0.00136615
2591.86	-0.0014704
2601.5	-0.000782495
2611.14	-0.00154165
2620.79	-0.000941274
2630.43	-0.00144658
2640.07	-0.00157978
2649.71	-0.0020603
2659.36	-0.00206709
2669	-0.00246612
2678.64	-0.0027986
2688.28	-0.00298069
2697.93	-0.00281919
2707.57	-0.00324509
2717.21	-0.0026756
2726.85	-0.00209079
2736.49	-0.00310948
2746.14	-0.00298349
2755.78	-0.00297912
2765.42	-0.00253446
2775.06	-0.00278789
2784.71	-0.00303459
2794.35	-0.00260799
2803.99	-0.00302456
2813.63	-0.00259939
2823.28	-0.0022806
2832.92	-0.00264933
2842.56	-0.00248296
2852.2	-0.00274205
2861.84	-0.00223291
2871.49	-0.00323754
2881.13	-0.00328554
2890.77	-0.00251399
2900.41	-0.00256735
2910.06	-0.00287309
2919.7	-0.00333744
2929.34	-0.00334575
2938.98	-0.00425039
2948.62	-0.00453773
2958.27	-0.0032643
2967.91	-0.00365822
2977.55	-0.00444372
2987.2	-0.00408846
2996.84	-0.00421133
3006.48	-0.0043485
3016.12	-0.0035543
3025.76	-0.00391197
3035.41	-0.00475646
3045.05	-0.00491734
3054.69	-0.00408983
3064.33	-0.00422106
3073.98	-0.00441617
3083.62	-0.00500792
3093.26	-0.00449873
3102.9	-0.00516583
3112.55	-0.00455679
3122.19	-0.00422145
3131.83	-0.00480902
3141.47	-0.00524902
3151.11	-0.00378315
3160.76	-0.00447592
3170.4	-0.00418327
3180.04	-0.0048716
3189.68	-0.0053062
3199.33	-0.00450708
3208.97	-0.00465758
3218.61	-0.00490805
3228.25	-0.0043767
3237.9	-0.00515158
3247.54	-0.00433161
3257.18	-0.00490535
3266.82	-0.00509655
3276.47	-0.00474473
3286.11	-0.0055344
3295.75	-0.00676181
3305.39	-0.00577709
3315.03	-0.00581954
3324.68	-0.00548314
3334.32	-0.00611129
3343.96	-0.00588588
3353.6	-0.00574238
3363.25	-0.00659026
3372.89	-0.00594671
3382.53	-0.006102
3392.17	-0.00685862
3401.82	-0.00614869
3411.46	-0.00738572
3421.1	-0.00714456
3430.74	-0.00656816
3440.39	-0.00658503
3450.03	-0.00615739
3459.67	-0.0076086
3469.31	-0.00866897
3478.95	-0.00700976
3488.6	-0.00674267
3498.24	-0.00822947
3507.88	-0.00756683
3517.52	-0.00839284
3527.17	-0.00788529
3536.81	-0.00775096
3546.45	-0.00828001
3556.09	-0.00744512
3565.74	-0.00799702
3575.38	-0.00825187
3585.02	-0.00802432
3594.66	-0.00844091
3604.3	-0.0104519
3613.95	-0.00852359
3623.59	-0.0087849
3633.23	-0.00857697
3642.87	-0.00812127
3652.52	-0.00800032
3662.16	-0.00922927
3671.8	-0.0101443
3681.44	-0.011461
3691.09	-0.00723582
3700.73	-0.00902861
3710.37	-0.00899896
3720.01	-0.0097842
3729.66	-0.00964839
3739.3	-0.00872656
3748.94	-0.00785987
3758.58	-0.0106719
3768.22	-0.0103025
3777.87	-0.0103057
3787.51	-0.0105218
3797.15	-0.010756
3806.79	-0.00913736
3816.44	-0.0096309
3826.08	-0.0114333
3835.72	-0.0100214
3845.36	-0.00950994
3855.01	-0.00999171
3864.65	-0.010305
3874.29	-0.0100201
3883.93	-0.0106632
3893.57	-0.0114117
3903.22	-0.0112976
3912.86	-0.0105927
3922.5	-0.0116626
3932.14	-0.0105418
3941.79	-0.0107726
3951.43	-0.0113866
3961.07	-0.0118894
3970.71	-0.0105278
3980.36	-0.0123366
3990	-0.0119942
3999.64	-0.012624
