Measurement: Infrared, Infrared Data Processed
Mineral: Meneghinite
Rruff sample: R070093
Ideal chemistry: Pb^2+^_13_Cu^1+^Sb^3+^_7_S^2-^_24_
Locality: Kalkar Quarry, Santa Cruz, Santa Cruz County, California, USA
Source: James Shigley
Description: Elongated silver-gray metallic crystals embedded in quartz and associated with calcite
Measured chemistry: (Pb_12.20_Sn_0.80_)_Σ=13_Cu_1.00_(Sb_6.97_As_0.03_)_Σ=7_S_24.00_
x	intensity
374.123	0.183059
383.765	0.207412
393.407	0.228208
403.05	0.257345
412.692	0.278632
422.334	0.296369
431.976	0.314436
441.619	0.336753
451.261	0.346901
460.904	0.354747
470.546	0.359133
480.188	0.363983
489.83	0.369876
499.473	0.380583
509.115	0.390553
518.758	0.400468
528.4	0.407902
538.042	0.411199
547.684	0.419815
557.327	0.43017
566.969	0.437271
576.611	0.44786
586.254	0.458365
595.896	0.468498
605.538	0.477853
615.181	0.485098
624.823	0.49204
634.466	0.502305
644.108	0.507177
653.75	0.511789
663.393	0.518446
673.035	0.522461
682.677	0.53076
692.319	0.539538
701.962	0.542861
711.604	0.549532
721.246	0.554215
730.889	0.56186
740.531	0.57022
750.173	0.577741
759.816	0.58476
769.458	0.594056
779.101	0.603027
788.743	0.607067
798.385	0.611316
808.028	0.609958
817.67	0.609027
827.312	0.613514
836.955	0.616458
846.597	0.624023
856.239	0.629441
865.881	0.638696
875.524	0.656613
885.166	0.652152
894.808	0.66058
904.451	0.669137
914.093	0.678724
923.736	0.687642
933.378	0.696959
943.02	0.706463
952.663	0.716576
962.305	0.728645
971.947	0.740956
981.59	0.751414
991.232	0.759752
1000.87	0.766401
1010.52	0.773688
1020.16	0.78172
1029.8	0.788043
1039.44	0.793755
1049.09	0.796744
1058.73	0.799893
1068.37	0.801307
1078.01	0.805859
1087.65	0.810194
1097.3	0.814021
1106.94	0.816338
1116.58	0.818377
1126.22	0.821021
1135.87	0.828392
1145.51	0.836051
1155.15	0.837862
1164.79	0.838139
1174.44	0.837903
1184.08	0.840173
1193.72	0.845724
1203.36	0.849918
1213.01	0.850418
1222.65	0.852298
1232.29	0.854373
1241.93	0.856992
1251.58	0.858745
1261.22	0.860313
1270.86	0.862835
1280.5	0.866533
1290.14	0.870691
1299.79	0.875718
1309.43	0.880295
1319.07	0.884078
1328.71	0.88849
1338.36	0.89461
1348	0.901638
1357.64	0.909382
1367.28	0.918034
1376.92	0.927442
1386.57	0.931638
1396.21	0.942364
1405.85	0.952332
1415.49	0.965509
1425.14	0.970635
1434.78	0.973912
1444.42	0.976917
1454.06	0.97981
1463.71	0.98007
1473.35	0.975886
1482.99	0.976539
1492.63	0.977545
1502.28	0.981373
1511.92	0.985897
1521.56	0.989652
1531.2	0.995062
1540.85	0.996494
1550.49	1.00125
1560.13	1.00141
1569.77	1.00626
1579.41	1.01142
1589.06	1.01554
1598.7	1.02011
1608.34	1.02477
1617.98	1.02857
1627.63	1.03499
1637.27	1.03924
1646.91	1.04261
1656.55	1.04689
1666.19	1.04998
1675.84	1.0526
1685.48	1.05441
1695.12	1.05878
1704.77	1.06351
1714.41	1.06778
1724.05	1.07174
1733.69	1.07419
1743.33	1.0751
1752.98	1.07473
1762.62	1.0764
1772.26	1.07831
1781.9	1.08264
1791.55	1.08632
1801.19	1.08978
1810.83	1.09262
1820.47	1.09465
1830.12	1.09593
1839.76	1.10045
1849.4	1.10367
1859.04	1.10784
1868.68	1.11088
1878.33	1.11391
1887.97	1.11808
1897.61	1.12235
1907.25	1.12373
1916.9	1.12697
1926.54	1.12813
1936.18	1.13084
1945.82	1.1344
1955.46	1.13485
1965.11	1.14037
1974.75	1.14073
1984.39	1.15284
1994.04	1.15304
2003.68	1.15606
2013.32	1.16576
2022.96	1.15972
2032.6	1.17328
2042.25	1.17437
2051.89	1.17954
2061.53	1.17898
2071.17	1.18948
2080.82	1.19009
2090.46	1.19481
2100.1	1.20263
2109.74	1.20268
2119.39	1.20696
2129.03	1.21357
2138.67	1.2153
2148.31	1.21915
2157.95	1.22379
2167.6	1.22512
2177.24	1.22428
2186.88	1.22457
2196.52	1.23931
2206.17	1.23389
2215.81	1.23865
2225.45	1.2431
2235.09	1.24837
2244.74	1.2528
2254.38	1.25659
2264.02	1.25837
2273.66	1.27074
2283.3	1.2692
2292.95	1.27351
2302.59	1.27968
2312.23	1.27908
2321.87	1.28355
2331.52	1.2863
2341.16	1.28917
2350.8	1.29459
2360.44	1.29357
2370.09	1.30016
2379.73	1.30274
2389.37	1.30977
2399.01	1.30968
2408.66	1.31328
2418.3	1.31719
2427.94	1.31835
2437.58	1.32146
2447.22	1.32345
2456.87	1.32815
2466.51	1.33066
2476.15	1.33302
2485.79	1.33648
2495.44	1.34191
2505.08	1.34566
2514.72	1.34897
2524.36	1.3528
2534.01	1.3535
2543.65	1.35807
2553.29	1.36164
2562.93	1.36414
2572.57	1.36785
2582.22	1.37193
2591.86	1.3775
2601.5	1.38058
2611.14	1.38555
2620.79	1.38898
2630.43	1.3939
2640.07	1.39909
2649.71	1.4037
2659.36	1.4082
2669	1.4114
2678.64	1.41395
2688.28	1.41712
2697.93	1.41967
2707.57	1.42304
2717.21	1.42741
2726.85	1.43035
2736.49	1.43294
2746.14	1.43645
2755.78	1.4379
2765.42	1.4418
2775.06	1.4452
2784.71	1.44784
2794.35	1.45183
2803.99	1.45648
2813.63	1.461
2823.28	1.46602
2832.92	1.47311
2842.56	1.48364
2852.2	1.49366
2861.84	1.49408
2871.49	1.49578
2881.13	1.49527
2890.77	1.50135
2900.41	1.50853
2910.06	1.5173
2919.7	1.5248
2929.34	1.52631
2938.98	1.51884
2948.62	1.51959
2958.27	1.52151
2967.91	1.51589
2977.55	1.51036
2987.2	1.50917
2996.84	1.51075
3006.48	1.5118
3016.12	1.51528
3025.76	1.51891
3035.41	1.52169
3045.05	1.52399
3054.69	1.52621
3064.33	1.53099
3073.98	1.53508
3083.62	1.53721
3093.26	1.53917
3102.9	1.54311
3112.55	1.54576
3122.19	1.54929
3131.83	1.55218
3141.47	1.5557
3151.11	1.55967
3160.76	1.56242
3170.4	1.56601
3180.04	1.5695
3189.68	1.57448
3199.33	1.57696
3208.97	1.57724
3218.61	1.58358
3228.25	1.58639
3237.9	1.5898
3247.54	1.59308
3257.18	1.59663
3266.82	1.59856
3276.47	1.60302
3286.11	1.60538
3295.75	1.60799
3305.39	1.61285
3315.03	1.61529
3324.68	1.61889
3334.32	1.62009
3343.96	1.62441
3353.6	1.62643
3363.25	1.63007
3372.89	1.63116
3382.53	1.63539
3392.17	1.63675
3401.82	1.64084
3411.46	1.64094
3421.1	1.64316
3430.74	1.64541
3440.39	1.64654
3450.03	1.64959
3459.67	1.65236
3469.31	1.65574
3478.95	1.65741
3488.6	1.65702
3498.24	1.65995
3507.88	1.66275
3517.52	1.66283
3527.17	1.66423
3536.81	1.66716
3546.45	1.67039
3556.09	1.67295
3565.74	1.6734
3575.38	1.67447
3585.02	1.67472
3594.66	1.67592
3604.3	1.68248
3613.95	1.67949
3623.59	1.68304
3633.23	1.68372
3642.87	1.68848
3652.52	1.69005
3662.16	1.69437
3671.8	1.69283
3681.44	1.69759
3691.09	1.69629
3700.73	1.69904
3710.37	1.70037
3720.01	1.70566
3729.66	1.70906
3739.3	1.71281
3748.94	1.71137
3758.58	1.71568
3768.22	1.71628
3777.87	1.71991
3787.51	1.72205
3797.15	1.72451
3806.79	1.72692
3816.44	1.72741
3826.08	1.73424
3835.72	1.73478
3845.36	1.73803
3855.01	1.73553
3864.65	1.74321
3874.29	1.74415
3883.93	1.74842
3893.57	1.75066
3903.22	1.75193
3912.86	1.75591
3922.5	1.75749
3932.14	1.75931
3941.79	1.76238
3951.43	1.76532
3961.07	1.76711
3970.71	1.77212
3980.36	1.7696
3990	1.77143
3999.64	1.77749
