Measurement: Infrared, Infrared Data Processed
Mineral: Miargyrite
Rruff sample: R050480
Ideal chemistry: Ag^1+^Sb^3+^S^2-^_2_
Locality: Boulder County, Colorado, USA
Source: California Institute of Technology
Description: Dark gray metallic fragment, hints of internal red
Measured chemistry: Ag_1.00_Sb_1.00_S_2.00_
x	intensity
50.1401	0.0277414
52.0686	0.0282662
53.9971	0.0263677
55.9255	0.0258473
57.854	0.0274569
59.7825	0.0340701
61.7109	0.0348291
63.6394	0.0342491
65.5679	0.0381466
67.4963	0.0422424
69.4248	0.0368116
71.3533	0.0335828
73.2817	0.0323447
75.2102	0.0344348
77.1387	0.0366236
79.0671	0.0390998
80.9956	0.0415581
82.9241	0.0441255
84.8525	0.0444486
86.781	0.0451066
88.7095	0.047164
90.6379	0.0483761
92.5664	0.0478482
94.4948	0.0492717
96.4233	0.0519367
98.3518	0.0518706
100.28	0.0486693
102.209	0.0473195
104.137	0.0481448
106.066	0.0497947
107.994	0.0526573
109.923	0.0553169
111.851	0.055581
113.779	0.056994
115.708	0.058403
117.636	0.0590026
119.565	0.0604308
121.493	0.0624927
123.422	0.0632809
125.35	0.0649863
127.279	0.0665464
129.207	0.067846
131.136	0.0690119
133.064	0.0706984
134.993	0.0719404
136.921	0.0741386
138.85	0.0757071
140.778	0.0768902
142.707	0.0779769
144.635	0.0798752
146.563	0.0800998
148.492	0.081073
150.42	0.0831593
152.349	0.0843841
154.277	0.0854401
156.206	0.0874252
158.134	0.0885941
160.063	0.0895215
161.991	0.0910002
163.92	0.0934414
165.848	0.0937986
167.777	0.0948644
169.705	0.0968759
171.633	0.0987324
173.562	0.100578
175.49	0.102527
177.419	0.104269
179.347	0.10577
181.276	0.107376
183.204	0.109257
185.133	0.110338
187.061	0.111358
188.99	0.111734
190.918	0.11251
192.847	0.113111
194.775	0.113448
196.704	0.112542
198.632	0.110752
200.56	0.108136
202.489	0.10464
204.417	0.100643
206.346	0.0987974
208.274	0.0973383
210.203	0.095687
212.131	0.094812
214.06	0.095147
215.988	0.096006
217.917	0.0975342
219.845	0.0982855
221.774	0.0990917
223.702	0.100045
225.631	0.101579
227.559	0.103779
229.488	0.105384
231.416	0.105962
233.344	0.106617
235.273	0.107992
237.201	0.110552
239.13	0.112268
241.058	0.113678
242.987	0.115333
244.915	0.117801
246.844	0.119609
248.772	0.121482
250.701	0.123765
252.629	0.126841
254.558	0.130454
256.486	0.133546
258.414	0.13588
260.343	0.139127
262.271	0.141554
264.2	0.142498
266.128	0.142611
268.057	0.142668
269.985	0.14134
271.914	0.138947
273.842	0.13727
275.771	0.136773
277.699	0.136795
279.628	0.136677
281.556	0.135554
283.485	0.134163
285.413	0.133452
287.341	0.133821
289.27	0.133743
291.198	0.132432
293.127	0.129834
295.055	0.12585
296.984	0.121859
298.912	0.118626
300.841	0.115665
302.769	0.112349
304.698	0.108139
306.626	0.104342
308.555	0.101332
310.483	0.0998077
312.411	0.100045
314.34	0.101747
316.269	0.104331
318.197	0.106215
320.125	0.106167
322.054	0.105481
323.982	0.104975
325.911	0.103948
327.839	0.100931
329.768	0.0949662
331.696	0.0885001
333.625	0.0833877
335.553	0.0799384
337.482	0.0785151
339.41	0.0785032
341.339	0.0791263
343.267	0.0798405
345.195	0.0799127
347.124	0.0791741
349.052	0.078551
350.981	0.0784783
352.909	0.0791402
354.838	0.0800445
356.766	0.0809701
358.695	0.081956
360.623	0.0828624
362.552	0.0834443
364.48	0.0847604
366.409	0.0865055
368.337	0.0877196
370.265	0.089014
372.194	0.0906261
374.122	0.0918606
376.051	0.092297
377.979	0.0922757
379.908	0.0924473
381.836	0.0929608
383.765	0.0937415
385.693	0.0947793
387.622	0.0962768
389.55	0.0983726
391.479	0.100516
393.407	0.102549
395.336	0.104189
397.264	0.104361
399.192	0.102816
401.121	0.100518
403.049	0.098854
404.978	0.0986118
406.906	0.0996321
408.835	0.101432
410.763	0.10347
412.692	0.105298
414.62	0.107192
416.549	0.109021
418.477	0.110793
420.406	0.112615
422.334	0.114158
424.262	0.115865
426.191	0.117775
428.12	0.119295
430.048	0.120437
431.976	0.121852
433.905	0.123286
435.833	0.124592
437.762	0.125951
439.69	0.12721
441.619	0.128239
443.547	0.129424
445.476	0.130816
447.404	0.131764
449.333	0.132886
451.261	0.134445
453.19	0.135847
455.118	0.137458
457.046	0.139368
458.975	0.140448
460.903	0.140576
462.832	0.140859
464.76	0.14153
466.689	0.141827
468.617	0.14191
470.546	0.141865
472.474	0.141612
474.403	0.141336
476.331	0.141443
478.26	0.141446
480.188	0.141273
482.116	0.140862
484.045	0.140992
485.974	0.14146
487.902	0.141527
489.83	0.141241
491.759	0.141356
493.687	0.141453
495.616	0.141591
497.544	0.142106
499.473	0.142372
501.401	0.142764
503.33	0.143292
505.258	0.143547
507.187	0.143971
509.115	0.144478
511.043	0.145129
512.972	0.145392
514.9	0.145496
516.829	0.14579
518.757	0.146487
520.686	0.146489
522.614	0.146354
524.543	0.146434
526.471	0.146778
528.4	0.146834
530.328	0.146427
532.257	0.146063
534.185	0.146333
536.114	0.146493
538.042	0.146261
539.971	0.146445
541.899	0.146582
543.827	0.147011
545.756	0.147205
547.684	0.14782
549.613	0.148484
551.541	0.148775
553.47	0.149113
555.398	0.149991
557.327	0.151205
559.255	0.152421
561.184	0.153198
563.112	0.153965
565.041	0.155095
566.969	0.155938
568.898	0.156091
570.826	0.156658
572.755	0.157086
574.683	0.157245
576.611	0.158004
578.54	0.159096
580.468	0.159573
582.397	0.159768
584.325	0.160463
586.254	0.160947
588.182	0.161371
590.111	0.162256
592.039	0.162935
593.968	0.16392
595.896	0.165237
597.824	0.166533
599.753	0.16749
601.682	0.168865
603.61	0.170006
605.538	0.16967
607.467	0.170186
609.395	0.170623
611.324	0.170419
613.252	0.170406
615.181	0.170079
617.109	0.169932
619.038	0.170364
620.966	0.171521
622.894	0.172827
624.823	0.173165
626.751	0.17354
628.68	0.174462
630.608	0.175265
632.537	0.176499
634.465	0.177166
636.394	0.177294
638.322	0.177541
640.251	0.178078
642.179	0.179066
644.108	0.180117
646.036	0.181301
647.965	0.18233
649.893	0.182945
651.822	0.183208
653.75	0.183965
655.678	0.184687
657.607	0.185354
659.535	0.186334
661.464	0.187157
663.392	0.187758
665.321	0.188864
667.249	0.189541
669.178	0.189978
671.106	0.190633
673.035	0.191441
674.963	0.192498
676.892	0.194008
678.82	0.195131
680.749	0.196248
682.677	0.196881
684.606	0.197043
686.534	0.198269
688.462	0.199872
690.391	0.201453
692.319	0.202459
694.248	0.202131
696.176	0.202173
698.105	0.202638
700.033	0.203673
