Measurement: Infrared, Infrared Data Processed
Mineral: Microcline
Rruff sample: R050150
Ideal chemistry: KAlSi_3_O_8_
Locality: Crystal Peak area, Park/Teller Counties, Colorado, USA
Source: Dave Bunk Minerals
Description: Pale blue prismatic crystals
Measured chemistry: (K_0.95_Na_0.05_)_Î£=1_Al_1.00_Si_3.00_O_8_
x	intensity
374.123	0.390437
383.765	0.222637
393.407	0.136674
403.05	0.21427
412.692	0.371019
422.334	0.281376
431.976	0.212093
441.619	0.16379
451.261	0.107002
460.904	0.0750903
470.546	0.0662389
480.188	0.0348243
489.83	0.0244898
499.473	0.0216882
509.115	0.0235597
518.758	0.033624
528.4	0.0801538
538.042	0.150225
547.684	0.0793828
557.327	0.10694
566.969	0.205037
576.611	0.226752
586.254	0.186421
595.896	0.133905
605.538	0.11337
615.181	0.0550554
624.823	0.0363811
634.466	0.0390537
644.108	0.0866994
653.75	0.0694411
663.393	0.0335166
673.035	0.0280063
682.677	0.0283676
692.319	0.0315277
701.962	0.0397965
711.604	0.0656835
721.246	0.130358
730.889	0.136999
740.531	0.0672444
750.173	0.0543415
759.816	0.0807316
769.458	0.125245
779.101	0.0853356
788.743	0.040142
798.385	0.0244942
808.028	0.0197997
817.67	0.01836
827.312	0.0181257
836.955	0.0188332
846.597	0.0203014
856.239	0.0218223
865.881	0.024156
875.524	0.027013
885.166	0.031075
894.808	0.0369839
904.451	0.0450029
914.093	0.0568619
923.736	0.0746005
933.378	0.104892
943.02	0.158511
952.663	0.248163
962.305	0.369498
971.947	0.492975
981.59	0.587596
991.232	0.614874
1000.87	0.578854
1010.52	0.516174
1020.16	0.421711
1029.8	0.36242
1039.44	0.332571
1049.09	0.316923
1058.73	0.236617
1068.37	0.19703
1078.01	0.1918
1087.65	0.190229
1097.3	0.174906
1106.94	0.171099
1116.58	0.179674
1126.22	0.193249
1135.87	0.195233
1145.51	0.150724
1155.15	0.113349
1164.79	0.0825842
1174.44	0.0587158
1184.08	0.0409967
1193.72	0.0278802
1203.36	0.0195567
1213.01	0.0149385
1222.65	0.0119605
1232.29	0.00932327
1241.93	0.00732628
1251.58	0.00562698
1261.22	0.00428746
1270.86	0.00326863
1280.5	0.00258744
1290.14	0.00211858
1299.79	0.00172367
1309.43	0.00144965
1319.07	0.00135681
1328.71	0.00113997
1338.36	0.00114889
1348	0.000861475
1357.64	0.000752684
1367.28	0.000806671
1376.92	0.000717326
1386.57	0.000522326
1396.21	0.000626944
1405.85	0.00016038
1415.49	6.93702e-05
1425.14	0.000188972
1434.78	0.000333715
1444.42	8.54752e-05
1454.06	-3.22584e-06
1463.71	-7.03535e-05
1473.35	0.000760154
1482.99	0.000272969
1492.63	0.000294322
1502.28	0.000217101
1511.92	0.000435162
1521.56	0.00127979
1531.2	0.000355016
1540.85	0.00177645
1550.49	0.000461523
1560.13	0.00209067
1569.77	0.00112587
1579.41	0.00101602
1589.06	0.000915897
1598.7	0.00136218
1608.34	0.00155995
1617.98	0.00211705
1627.63	0.00188288
1637.27	0.00215687
1646.91	0.00238344
1656.55	0.00165781
1666.19	0.00129768
1675.84	0.00159965
1685.48	0.00211334
1695.12	0.00212682
1704.77	0.00156609
1714.41	0.00150135
1724.05	0.00118681
1733.69	0.00216792
1743.33	0.000684165
1752.98	0.00119566
1762.62	0.00196265
1772.26	0.00190897
1781.9	0.00149301
1791.55	0.00174603
1801.19	0.00131143
1810.83	0.00110772
1820.47	0.000700147
1830.12	0.000663629
1839.76	0.000257938
1849.4	1.53237e-05
1859.04	-0.000113361
1868.68	-0.000111378
1878.33	-0.000909415
1887.97	-0.00102794
1897.61	-0.00162919
1907.25	-0.00178462
1916.9	-0.00239003
1926.54	-0.0027109
1936.18	-0.00317029
1945.82	-0.00526337
1955.46	-0.00571753
1965.11	-0.00573711
1974.75	-0.0074163
1984.39	-0.00455321
1994.04	-0.00538376
2003.68	-0.0071234
2013.32	-0.00747691
2022.96	-0.00636677
2032.6	-0.00664547
2042.25	-0.00527389
2051.89	-0.00342304
2061.53	-0.00449431
2071.17	-0.00269383
2080.82	-0.00213842
2090.46	-0.00257809
2100.1	-0.00151735
2109.74	-0.00137095
2119.39	-0.0018458
2129.03	-0.00211786
2138.67	-0.00130087
2148.31	-0.00199014
2157.95	-0.00256336
2167.6	0.000507362
2177.24	-0.00208269
2186.88	-0.00162754
2196.52	0.000118896
2206.17	-0.000432044
2215.81	-0.00153909
2225.45	-0.000480878
2235.09	-0.000244304
2244.74	-0.00162951
2254.38	-0.000709565
2264.02	-0.00114598
2273.66	-0.000728247
2283.3	-3.67104e-05
2292.95	-0.000132572
2302.59	0.000446482
2312.23	0.000958772
2321.87	0.00218986
2331.52	0.00186783
2341.16	0.00191146
2350.8	0.00133395
2360.44	0.00262883
2370.09	0.00225618
2379.73	0.00141428
2389.37	0.00125534
2399.01	0.00148072
2408.66	0.00177326
2418.3	0.00153253
2427.94	0.00160043
2437.58	0.00170387
2447.22	0.00203088
2456.87	0.00202191
2466.51	0.00180251
2476.15	0.00188319
2485.79	0.00176206
2495.44	0.00183219
2505.08	0.00181982
2514.72	0.00213135
2524.36	0.00127437
2534.01	0.00195846
2543.65	0.0017402
2553.29	0.0023317
2562.93	0.00215435
2572.57	0.00253943
2582.22	0.00242971
2591.86	0.00219469
2601.5	0.00254821
2611.14	0.00271353
2620.79	0.0030611
2630.43	0.00324466
2640.07	0.00342373
2649.71	0.00333071
2659.36	0.00350539
2669	0.00324029
2678.64	0.00312648
2688.28	0.00325891
2697.93	0.00312115
2707.57	0.00292406
2717.21	0.00335737
2726.85	0.00360539
2736.49	0.00330176
2746.14	0.00345153
2755.78	0.00321174
2765.42	0.00359318
2775.06	0.00339434
2784.71	0.00339178
2794.35	0.00337612
2803.99	0.00388116
2813.63	0.00396212
2823.28	0.00377254
2832.92	0.00408542
2842.56	0.00371093
2852.2	0.00270015
2861.84	0.00291892
2871.49	0.00354106
2881.13	0.00347829
2890.77	0.0042252
2900.41	0.00349852
2910.06	0.00331931
2919.7	0.00215415
2929.34	0.00266674
2938.98	0.00315506
2948.62	0.00302754
2958.27	0.00355641
2967.91	0.00363795
2977.55	0.00401926
2987.2	0.00389361
2996.84	0.00384208
3006.48	0.00385247
3016.12	0.00226109
3025.76	0.00413027
3035.41	0.00399284
3045.05	0.00414462
3054.69	0.00431607
3064.33	0.00467265
3073.98	0.00397581
3083.62	0.00437236
3093.26	0.00407251
3102.9	0.00398738
3112.55	0.0043653
3122.19	0.0041895
3131.83	0.00518585
3141.47	0.00500525
3151.11	0.00506302
3160.76	0.00505249
3170.4	0.00474908
3180.04	0.00615557
3189.68	0.00558557
3199.33	0.00524944
3208.97	0.00605404
3218.61	0.00590158
3228.25	0.00587647
3237.9	0.00539786
3247.54	0.00610948
3257.18	0.00526204
3266.82	0.00596384
3276.47	0.00584592
3286.11	0.00597602
3295.75	0.00594266
3305.39	0.00516205
3315.03	0.00604025
3324.68	0.00615693
3334.32	0.0064353
3343.96	0.00688086
3353.6	0.0065227
3363.25	0.00563817
3372.89	0.00647487
3382.53	0.00648594
3392.17	0.00592133
3401.82	0.00519711
3411.46	0.00560299
3421.1	0.00560641
3430.74	0.00592826
3440.39	0.00501418
3450.03	0.00570578
3459.67	0.00486805
3469.31	0.00490733
3478.95	0.00488685
3488.6	0.00595417
3498.24	0.00496803
3507.88	0.00536984
3517.52	0.00492889
3527.17	0.0049444
3536.81	0.00505103
3546.45	0.0048842
3556.09	0.00426727
3565.74	0.00536977
3575.38	0.00504543
3585.02	0.00416065
3594.66	0.00502905
3604.3	0.00488382
3613.95	0.00470041
3623.59	0.00580462
3633.23	0.00314882
3642.87	0.00425162
3652.52	0.00472311
3662.16	0.00386761
3671.8	0.0045897
3681.44	0.00256384
3691.09	0.00444168
3700.73	0.00388462
3710.37	0.0048003
3720.01	0.00325144
3729.66	0.00331995
3739.3	0.00256186
3748.94	0.00568946
3758.58	0.00364839
3768.22	0.00404273
3777.87	0.00400141
3787.51	0.00329753
3797.15	0.00429892
3806.79	0.00365496
3816.44	0.00354403
3826.08	0.00318025
3835.72	0.00386478
3845.36	0.00349445
3855.01	0.00525837
3864.65	0.00446374
3874.29	0.00358804
3883.93	0.00400728
3893.57	0.00357545
3903.22	0.00432299
3912.86	0.00286752
3922.5	0.00253256
3932.14	0.00307953
3941.79	0.00278677
3951.43	0.00131479
3961.07	0.00158726
3970.71	0.00200596
3980.36	0.00209334
3990	0.00246168
3999.64	0.00274702
