Measurement: Infrared, Infrared Data Processed
Mineral: Miserite
Rruff sample: R060095
Ideal chemistry: K_1.5-x_(Ca,Y,REE)_5_[Si_6_O_15_][Si_2_O_7_](OH,F)_2_yH_2_O
Locality: Magnet Cove, Garland County, Arkansas, USA
Source: University of Arizona Mineral Museum
Description: Massive pink fine fibers associated with eudialyte, wollastonite, and orthoclase
Measured chemistry: K_1.00_(Ca_5.85_Mn_0.05_Ti_0.05_[box]_0.05_)_Σ=6_Si_8.00_O_22_(F_1.46_(OH)_0.54_)_Σ=2_
x	intensity
399.193	0.0995546
408.835	0.121955
418.477	0.126217
428.12	0.181198
437.762	0.172985
447.404	0.163113
457.047	0.199026
466.689	0.198049
476.331	0.221829
485.974	0.188306
495.616	0.147931
505.258	0.131334
514.901	0.124157
524.543	0.103877
534.185	0.0957046
543.828	0.0714676
553.47	0.0699632
563.112	0.0755659
572.755	0.0646623
582.397	0.0452236
592.039	0.0423489
601.682	0.0628492
611.324	0.0525894
620.966	0.0523858
630.609	0.0396399
640.251	0.0440017
649.893	0.0412833
659.536	0.0364388
669.178	0.0355741
678.82	0.0413636
688.463	0.0518939
698.105	0.0385367
707.747	0.0288861
717.39	0.0317436
727.032	0.0435016
736.674	0.0624362
746.317	0.062278
755.959	0.0799164
765.601	0.099408
775.244	0.0850178
784.886	0.0735391
794.528	0.0753142
804.171	0.0619272
813.813	0.0591371
823.455	0.0753831
833.098	0.0935046
842.74	0.111344
852.382	0.114423
862.025	0.0961893
871.667	0.0933253
881.309	0.103147
890.952	0.141139
900.594	0.168799
910.236	0.182769
919.879	0.228192
929.521	0.292227
939.163	0.347849
948.806	0.404285
958.448	0.402227
968.09	0.343925
977.733	0.31238
987.375	0.307084
997.017	0.30548
1006.66	0.297095
1016.3	0.288622
1025.94	0.287092
1035.59	0.249823
1045.23	0.218154
1054.87	0.180453
1064.51	0.158261
1074.16	0.136372
1083.8	0.127155
1093.44	0.124919
1103.08	0.11945
1112.72	0.137573
1122.37	0.103538
1132.01	0.0651108
1141.65	0.0401259
1151.3	0.0255593
1160.94	0.0177573
1170.58	0.0144294
1180.22	0.012663
1189.86	0.0113737
1199.51	0.0103527
1209.15	0.00957174
1218.79	0.00855218
1228.43	0.00768505
1238.08	0.0070461
1247.72	0.00683185
1257.36	0.00661979
1267	0.0065339
1276.64	0.00657455
1286.29	0.00652977
1295.93	0.00651704
1305.57	0.00662946
1315.21	0.0066078
1324.86	0.00659923
1334.5	0.00669487
1344.14	0.00689791
1353.78	0.00725242
1363.43	0.00751771
1373.07	0.00862341
1382.71	0.0113009
1392.35	0.0161944
1401.99	0.0237265
1411.64	0.0217498
1421.28	0.0179738
1430.92	0.0237955
1440.57	0.0222896
1450.21	0.0190061
1459.85	0.0144147
1469.49	0.0121566
1479.13	0.0110604
1488.78	0.00990745
1498.42	0.00953136
1508.06	0.00826289
1517.7	0.00847594
1527.35	0.00856903
1536.99	0.00801065
1546.63	0.00886645
1556.27	0.0080166
1565.91	0.00991619
1575.56	0.00912298
1585.2	0.0112463
1594.84	0.0118935
1604.48	0.0126044
1614.13	0.0114662
1623.77	0.0105712
1633.41	0.0107323
1643.05	0.0110595
1652.7	0.00745803
1662.34	0.0105304
1671.98	0.0102354
1681.62	0.00971022
1691.27	0.00968636
1700.91	0.00693981
1710.55	0.00887126
1720.19	0.00819511
1729.84	0.00833131
1739.48	0.00702613
1749.12	0.00664938
1758.76	0.00780939
1768.4	0.0076193
1778.05	0.00813141
1787.69	0.00823855
1797.33	0.00809658
1806.97	0.00818045
1816.62	0.00770318
1826.26	0.00812917
1835.9	0.0077636
1845.54	0.00700543
1855.18	0.00750592
1864.83	0.00716147
1874.47	0.00698311
1884.11	0.00662013
1893.75	0.00659418
1903.4	0.0064417
1913.04	0.00685479
1922.68	0.00633055
1932.32	0.00644849
1941.97	0.00513294
1951.61	0.00570628
1961.25	0.00708934
1970.89	0.00600654
1980.54	0.00810701
1990.18	0.00598893
1999.82	0.00767088
2009.46	0.0068879
2019.11	0.00689484
2028.75	0.0078626
2038.39	0.00850622
2048.03	0.00882542
2057.67	0.00845648
2067.32	0.00811426
2076.96	0.00915764
2086.6	0.00912214
2096.24	0.00878395
2105.89	0.00990906
2115.53	0.010154
2125.17	0.00856344
2134.81	0.00811081
2144.45	0.00899731
2154.1	0.00932882
2163.74	0.0131653
2173.38	0.0119657
2183.02	0.0124631
2192.67	0.0115306
2202.31	0.0121665
2211.95	0.0122178
2221.59	0.0126307
2231.24	0.0121812
2240.88	0.0125734
2250.52	0.013357
2260.16	0.0134855
2269.8	0.0144124
2279.45	0.0148948
2289.09	0.0148128
2298.73	0.0139739
2308.38	0.013793
2318.02	0.0146806
2327.66	0.0136041
2337.3	0.0136147
2346.94	0.0135521
2356.59	0.0132823
2366.23	0.0131936
2375.87	0.0132729
2385.51	0.0135721
2395.16	0.013531
2404.8	0.0134123
2414.44	0.0143775
2424.08	0.0140939
2433.72	0.0143647
2443.37	0.014683
2453.01	0.0145964
2462.65	0.0147964
2472.29	0.0145114
2481.94	0.0146483
2491.58	0.0147788
2501.22	0.0148648
2510.86	0.0152338
2520.51	0.014622
2530.15	0.0148618
2539.79	0.0152497
2549.43	0.0150254
2559.07	0.0156133
2568.72	0.0157795
2578.36	0.0160844
2588	0.0162959
2597.64	0.0157363
2607.29	0.0165463
2616.93	0.0170883
2626.57	0.0168997
2636.21	0.0170281
2645.86	0.0172085
2655.5	0.0171679
2665.14	0.0168534
2674.78	0.0171966
2684.43	0.0173034
2694.07	0.017178
2703.71	0.0174479
2713.35	0.017662
2722.99	0.0176151
2732.64	0.0177424
2742.28	0.0178116
2751.92	0.0181768
2761.56	0.0182573
2771.21	0.0183917
2780.85	0.0183482
2790.49	0.0184995
2800.13	0.0182629
2809.78	0.0185918
2819.42	0.0189407
2829.06	0.0191063
2838.7	0.0189792
2848.34	0.0165115
2857.99	0.0176366
2867.63	0.0188541
2877.27	0.0193668
2886.91	0.0192731
2896.56	0.0185178
2906.2	0.0188015
2915.84	0.0162725
2925.48	0.0172881
2935.13	0.0185907
2944.77	0.0197147
2954.41	0.0208724
2964.05	0.0210879
2973.7	0.0208089
2983.34	0.0214432
2992.98	0.0213712
3002.62	0.0212082
3012.26	0.0218801
3021.91	0.0218037
3031.55	0.0221785
3041.19	0.0228688
3050.83	0.0231979
3060.48	0.0232307
3070.12	0.0234826
3079.76	0.0243678
3089.4	0.0249121
3099.05	0.0249719
3108.69	0.025136
3118.33	0.0253589
3127.97	0.0259094
3137.61	0.0253615
3147.26	0.0257258
3156.9	0.0261951
3166.54	0.0261675
3176.18	0.0261754
3185.83	0.0266173
3195.47	0.0257814
3205.11	0.0268594
3214.75	0.0260622
3224.4	0.0265394
3234.04	0.0267352
3243.68	0.0266937
3253.32	0.0264165
3262.97	0.0270299
3272.61	0.0270337
3282.25	0.0273124
3291.89	0.0270006
3301.53	0.0272472
3311.18	0.0279384
3320.82	0.0275792
3330.46	0.0277117
3340.1	0.0279776
3349.75	0.028839
3359.39	0.0289412
3369.03	0.0282857
3378.67	0.0290124
3388.32	0.0285467
3397.96	0.0286566
3407.6	0.0285056
3417.24	0.0282792
3426.89	0.0281593
3436.53	0.0280499
3446.17	0.0279986
3455.81	0.0285414
3465.45	0.0288927
3475.1	0.0287861
3484.74	0.0286296
3494.38	0.029098
3504.02	0.0282552
3513.67	0.0286144
3523.31	0.0284353
3532.95	0.028415
3542.59	0.0298206
3552.24	0.0293303
3561.88	0.0300613
3571.52	0.0316012
3581.16	0.0325833
3590.8	0.0344863
3600.45	0.0336332
3610.09	0.0288307
3619.73	0.0272869
3629.37	0.0239905
3639.02	0.0251308
3648.66	0.0209548
3658.3	0.023529
3667.94	0.0219533
3677.59	0.0216065
3687.23	0.0212452
3696.87	0.023368
3706.51	0.0234274
3716.16	0.0242509
3725.8	0.0234769
3735.44	0.0211961
3745.08	0.0186834
3754.72	0.0243102
3764.37	0.0238488
3774.01	0.025228
3783.65	0.0244381
3793.29	0.025349
3802.94	0.0226193
3812.58	0.024923
3822.22	0.0227024
3831.86	0.0237053
3841.51	0.0241288
3851.15	0.0212711
3860.79	0.0247047
3870.43	0.0227213
3880.07	0.0242975
3889.72	0.0241848
3899.36	0.0234429
3909	0.0252939
3918.64	0.0244758
3928.29	0.0260586
3937.93	0.0253766
3947.57	0.0251296
3957.21	0.0260306
3966.86	0.0259673
3976.5	0.0258125
3986.14	0.0264026
3995.78	0.0271626
