Measurement: Infrared, Infrared Data Processed
Mineral: Molybdenite
Rruff sample: R050209
Ideal chemistry: Mo^4+^S^2-^_2_
Locality: Boss Mountain mine, Hendrix Lake, British Columbia, Canada
Source: Lloyd Twaites
Description: Foiliated gray colored, represents the 2H polytype
Measured chemistry: Mo_1.00_S_2.00_
x	intensity
50.1401	0.0187507
52.0686	0.0135424
53.9971	0.0123463
55.9255	0.0124565
57.854	0.015704
59.7825	0.018402
61.7109	0.0178643
63.6394	0.0192266
65.5679	0.0209136
67.4963	0.0206678
69.4248	0.0193194
71.3533	0.0184936
73.2817	0.0206201
75.2102	0.0216583
77.1387	0.022534
79.0671	0.0246418
80.9956	0.0251688
82.9241	0.0258971
84.8525	0.0271002
86.781	0.027319
88.7095	0.0274846
90.6379	0.0272464
92.5664	0.0265786
94.4948	0.026357
96.4233	0.0275063
98.3518	0.0287137
100.28	0.0286266
102.209	0.0288234
104.137	0.0296221
106.066	0.0305727
107.994	0.030977
109.923	0.0315222
111.851	0.0322371
113.779	0.031944
115.708	0.0322154
117.636	0.0329093
119.565	0.0335003
121.493	0.0345076
123.422	0.0346224
125.35	0.0344779
127.279	0.0347288
129.207	0.0356508
131.136	0.0367607
133.064	0.0372756
134.993	0.0377114
136.921	0.0386982
138.85	0.0395598
140.778	0.040058
142.707	0.0402705
144.635	0.0403044
146.563	0.0408373
148.492	0.0416255
150.42	0.0423918
152.349	0.0428632
154.277	0.0430359
156.206	0.0434832
158.134	0.0438067
160.063	0.0443541
161.991	0.0449476
163.92	0.0449676
165.848	0.045062
167.777	0.0454525
169.705	0.0457037
171.633	0.045657
173.562	0.0454981
175.49	0.0462566
177.419	0.0472816
179.347	0.0475791
181.276	0.0476277
183.204	0.0476727
185.133	0.0479086
187.061	0.0478153
188.99	0.0480168
190.918	0.0484577
192.847	0.0485504
194.775	0.0491119
196.704	0.0497119
198.632	0.0499364
200.56	0.0501327
202.489	0.0503137
204.417	0.0506224
206.346	0.050972
208.274	0.0513644
210.203	0.0519881
212.131	0.0523778
214.06	0.0525598
215.988	0.052703
217.917	0.0530929
219.845	0.0537768
221.774	0.0539798
223.702	0.0540454
225.631	0.0543073
227.559	0.054773
229.488	0.0554474
231.416	0.0557396
233.344	0.0559596
235.273	0.0561466
237.201	0.0562347
239.13	0.0562216
241.058	0.0564834
242.987	0.0569196
244.915	0.0572972
246.844	0.0574752
248.772	0.0577278
250.701	0.0579935
252.629	0.0580069
254.558	0.058588
256.486	0.0593488
258.414	0.0598441
260.343	0.0600808
262.271	0.0605023
264.2	0.0608044
266.128	0.060697
268.057	0.0609332
269.985	0.0613118
271.914	0.0616798
273.842	0.0620907
275.771	0.0622482
277.699	0.0625615
279.628	0.0629381
281.556	0.0631296
283.485	0.0634615
285.413	0.0638196
287.341	0.0639815
289.27	0.0645788
291.198	0.0652386
293.127	0.0656233
295.055	0.0659159
296.984	0.0661974
298.912	0.066592
300.841	0.0669149
302.769	0.0672595
304.698	0.0674265
306.626	0.0677645
308.555	0.0683071
310.483	0.0687107
312.411	0.0690182
314.34	0.0692241
316.269	0.069664
318.197	0.0699658
320.125	0.070059
322.054	0.0703239
323.982	0.070591
325.911	0.0709426
327.839	0.0712234
329.768	0.0714212
331.696	0.0715677
333.625	0.0718234
335.553	0.0723492
337.482	0.0726711
339.41	0.0728439
341.339	0.0730879
343.267	0.0730762
345.195	0.0731803
347.124	0.0734764
349.052	0.0736389
350.981	0.0738971
352.909	0.0742933
354.838	0.0745564
356.766	0.0748988
358.695	0.0753833
360.623	0.0754648
362.552	0.0754997
364.48	0.0759053
366.409	0.0763614
368.337	0.0768306
370.265	0.0773354
372.194	0.0779484
374.122	0.0785428
376.051	0.0794109
377.979	0.08007
379.908	0.080697
381.836	0.0803742
383.765	0.0753088
385.693	0.0668834
387.622	0.0674362
389.55	0.0728597
391.479	0.0752697
393.407	0.0762275
395.336	0.0768417
397.264	0.0774723
399.192	0.077603
401.121	0.0778861
403.049	0.0783769
404.978	0.0787993
406.906	0.0791481
408.835	0.0794035
410.763	0.0796571
412.692	0.0802786
414.62	0.0808573
416.549	0.0812526
418.477	0.0815663
420.406	0.0819979
422.334	0.0823991
424.262	0.0828625
426.191	0.0830266
428.12	0.0833694
430.048	0.0837163
431.976	0.0839811
433.905	0.0843159
435.833	0.0848787
437.762	0.0849868
439.69	0.0852078
441.619	0.0855188
443.547	0.085889
445.476	0.0861642
447.404	0.0868497
449.333	0.0874106
451.261	0.0876624
453.19	0.0878952
455.118	0.0883766
457.046	0.0887383
458.975	0.0890664
460.903	0.0896059
462.832	0.0910039
464.76	0.0926112
466.689	0.0939815
468.617	0.0916344
470.546	0.0874834
472.474	0.08689
474.403	0.0878518
476.331	0.0884556
478.26	0.0892713
480.188	0.0900263
482.116	0.0902702
484.045	0.0901183
485.974	0.0905468
487.902	0.09097
489.83	0.0912768
491.759	0.091639
493.687	0.0919141
495.616	0.0921911
497.544	0.0927423
499.473	0.0927663
501.401	0.0930337
503.33	0.0932156
505.258	0.0934117
507.187	0.0940523
509.115	0.0941173
511.043	0.0942504
512.972	0.0948227
514.9	0.0950151
516.829	0.0951878
518.757	0.0956078
520.686	0.0957467
522.614	0.0957399
524.543	0.095806
526.471	0.0960029
528.4	0.0961562
530.328	0.0962531
532.257	0.0963205
534.185	0.0962458
536.114	0.0963063
538.042	0.0963236
539.971	0.0966468
541.899	0.0970311
543.827	0.096982
545.756	0.0967588
547.684	0.0971919
549.613	0.0975824
551.541	0.0978566
553.47	0.0981472
555.398	0.0981797
557.327	0.098307
559.255	0.0987078
561.184	0.0989055
563.112	0.098871
565.041	0.0989174
566.969	0.0992032
568.898	0.0993847
570.826	0.099756
572.755	0.100135
574.683	0.100329
576.611	0.100716
578.54	0.101015
580.468	0.101287
582.397	0.101502
584.325	0.101554
586.254	0.101775
588.182	0.101876
590.111	0.102287
592.039	0.102905
593.968	0.103352
595.896	0.103644
597.824	0.104257
599.753	0.104735
601.682	0.104577
603.61	0.104318
605.538	0.103891
607.467	0.103733
609.395	0.103593
611.324	0.103993
613.252	0.104876
615.181	0.104668
617.109	0.1043
619.038	0.10452
620.966	0.105112
622.894	0.105622
624.823	0.106556
626.751	0.107685
628.68	0.108215
630.608	0.108647
632.537	0.109173
634.465	0.109227
636.394	0.109069
638.322	0.109049
640.251	0.109382
642.179	0.110161
644.108	0.110374
646.036	0.110188
647.965	0.110543
649.893	0.111263
651.822	0.111545
653.75	0.111803
655.678	0.112426
657.607	0.112915
659.535	0.113046
661.464	0.113291
663.392	0.113678
665.321	0.11401
667.249	0.114438
669.178	0.114442
671.106	0.114207
673.035	0.114659
674.963	0.115094
676.892	0.115427
678.82	0.115948
680.749	0.116772
682.677	0.116939
684.606	0.116148
686.534	0.11579
688.462	0.116343
690.391	0.116884
692.319	0.117342
694.248	0.118549
696.176	0.117894
698.105	0.118199
700.033	0.11971
