Measurement: Infrared, Infrared Data Processed
Mineral: Montebrasite
Rruff sample: R050500
Ideal chemistry: LiAlPO_4_(OH)
Locality: Pala, San Diego County, California, USA
Source: California Institute of Technology
Description: White fragment
Measured chemistry: LiAl(PO_4_)((OH)_0.52_F_0.48_)
x	intensity
395.336	0.079501
404.978	0.0851965
414.62	0.083635
424.263	0.0716366
433.905	0.0661698
443.547	0.0663113
453.19	0.073308
462.832	0.0809226
472.474	0.0857979
482.117	0.0856973
491.759	0.0820335
501.401	0.0737214
511.044	0.0672827
520.686	0.0625461
530.328	0.0655927
539.971	0.064091
549.613	0.0576903
559.255	0.0497015
568.898	0.0433611
578.54	0.0430374
588.182	0.051112
597.825	0.0505995
607.467	0.0439038
617.109	0.0400434
626.752	0.0396965
636.394	0.0405221
646.036	0.0366901
655.679	0.0316201
665.321	0.0262739
674.963	0.0175013
684.606	0.0110773
694.248	0.00788326
703.89	0.00619278
713.533	0.00570367
723.175	0.00510456
732.817	0.00474215
742.46	0.00489733
752.102	0.00507508
761.744	0.00537841
771.387	0.00691332
781.029	0.00944878
790.671	0.0143836
800.314	0.0216043
809.956	0.0288152
819.598	0.0310159
829.241	0.0254212
838.883	0.014435
848.525	0.00704474
858.168	0.00525289
867.81	0.00443539
877.452	0.00462322
887.095	0.005045
896.737	0.00550747
906.379	0.00620573
916.022	0.00707318
925.664	0.00814457
935.306	0.0096312
944.949	0.0117752
954.591	0.0148271
964.233	0.0188235
973.876	0.0244156
983.518	0.033125
993.16	0.0454434
1002.8	0.0604432
1012.45	0.0725455
1022.09	0.0748497
1031.73	0.0619175
1041.37	0.0588119
1051.01	0.0726337
1060.66	0.0927962
1070.3	0.104584
1079.94	0.106807
1089.58	0.102415
1099.23	0.0962133
1108.87	0.087657
1118.51	0.0778142
1128.15	0.0680555
1137.8	0.0570804
1147.44	0.0462262
1157.08	0.0378957
1166.72	0.0305566
1176.37	0.0253666
1186.01	0.022987
1195.65	0.0212092
1205.29	0.0142772
1214.93	0.00683413
1224.58	0.00274194
1234.22	0.000986857
1243.86	0.000521059
1253.5	-4.52719e-05
1263.15	-0.000325516
1272.79	-0.00042863
1282.43	-0.000206501
1292.07	-0.000689858
1301.71	-0.000770096
1311.36	-0.000703519
1321	-0.000769886
1330.64	-0.00123642
1340.28	-0.00122663
1349.93	-0.00130148
1359.57	-0.00128122
1369.21	-0.00147271
1378.85	-0.00152059
1388.5	-0.00112254
1398.14	-0.00131007
1407.78	-0.00143092
1417.42	-0.00101202
1427.07	-0.00145324
1436.71	-0.000940735
1446.35	-0.00134915
1455.99	-0.000794283
1465.63	-0.00129307
1475.28	-0.00114427
1484.92	-0.00122019
1494.56	-0.00123613
1504.2	-0.00103103
1513.85	-0.00116118
1523.49	-0.00104098
1533.13	-0.00122155
1542.77	-0.000971819
1552.42	-0.00112132
1562.06	-0.000968531
1571.7	-0.00114689
1581.34	-0.00101244
1590.98	-0.000964517
1600.63	-0.000949181
1610.27	-0.000814974
1619.91	-0.000731338
1629.55	-0.000849537
1639.2	-0.00105301
1648.84	-0.000960615
1658.48	-0.00116649
1668.12	-0.000886907
1677.77	-0.00137899
1687.41	-0.00105555
1697.05	-0.000945753
1706.69	-0.00112082
1716.34	-0.000633331
1725.98	-0.00136187
1735.62	-0.00121258
1745.26	-0.00129846
1754.9	-0.00152495
1764.55	-0.00121606
1774.19	-0.00151286
1783.83	-0.00144613
1793.47	-0.00120904
1803.12	-0.00158329
1812.76	-0.00168869
1822.4	-0.00169251
1832.04	-0.00121445
1841.69	-0.00152191
1851.33	-0.00160763
1860.97	-0.00176264
1870.61	-0.00149237
1880.26	-0.00174097
1889.9	-0.00186199
1899.54	-0.00156024
1909.18	-0.00179597
1918.82	-0.00148382
1928.47	-0.00111836
1938.11	-0.00138689
1947.75	-0.00118295
1957.39	-0.00140897
1967.04	-0.000701096
1976.68	-0.00100127
1986.32	-0.0011805
1995.96	-0.00182231
2005.61	-0.00217709
2015.25	-0.00101364
2024.89	-0.00255502
2034.53	-0.00283994
2044.17	-0.00427869
2053.82	-0.00242308
2063.46	-0.00342655
2073.1	-0.00384678
2082.74	-0.00276432
2092.39	-0.00301111
2102.03	-0.0034418
2111.67	-0.00417872
2121.31	-0.00373171
2130.96	-0.0026072
2140.6	-0.00271039
2150.24	-0.00392267
2159.88	-0.00486744
2169.53	-0.00579033
2179.17	-0.00551547
2188.81	-0.00501009
2198.45	-0.00537655
2208.09	-0.00502838
2217.74	-0.00424436
2227.38	-0.00372954
2237.02	-0.00287994
2246.66	-0.00444911
2256.31	-0.00432358
2265.95	-0.00455424
2275.59	-0.00351884
2285.23	-0.00400169
2294.88	-0.00313734
2304.52	-0.00360935
2314.16	-0.00333227
2323.8	-0.00347846
2333.45	-0.00243932
2343.09	-0.00221783
2352.73	-0.00235545
2362.37	-0.00165269
2372.01	-0.00225873
2381.66	-0.0027914
2391.3	-0.00238472
2400.94	-0.00269183
2410.58	-0.00274567
2420.23	-0.0027903
2429.87	-0.00223591
2439.51	-0.00241443
2449.15	-0.00322609
2458.8	-0.00239522
2468.44	-0.00200752
2478.08	-0.00208353
2487.72	-0.00222669
2497.36	-0.00240539
2507.01	-0.0023898
2516.65	-0.00215133
2526.29	-0.00223858
2535.93	-0.00319195
2545.58	-0.00282597
2555.22	-0.002934
2564.86	-0.0029292
2574.5	-0.00286046
2584.14	-0.00300828
2593.79	-0.00295827
2603.43	-0.00284335
2613.07	-0.00291213
2622.72	-0.00305865
2632.36	-0.00316162
2642	-0.0029947
2651.64	-0.00298228
2661.28	-0.00263366
2670.93	-0.00259238
2680.57	-0.00222279
2690.21	-0.00251226
2699.85	-0.0023699
2709.5	-0.00252345
2719.14	-0.00267979
2728.78	-0.00239142
2738.42	-0.00220366
2748.07	-0.00187758
2757.71	-0.00239669
2767.35	-0.00236438
2776.99	-0.00187858
2786.63	-0.00162634
2796.28	-0.00167056
2805.92	-0.00182914
2815.56	-0.00198485
2825.2	-0.00180454
2834.85	-0.00127798
2844.49	-0.0019142
2854.13	-0.0012967
2863.77	-0.00130574
2873.41	-0.00157089
2883.06	-0.00174703
2892.7	-0.00162138
2902.34	-0.00118828
2911.99	-0.00123098
2921.63	-0.00108563
2931.27	-0.00125466
2940.91	-0.0010702
2950.55	-0.000587575
2960.2	-0.00132514
2969.84	-0.00127165
2979.48	-0.0013522
2989.12	-0.00141583
2998.77	-0.00100366
3008.41	-0.00139877
3018.05	-0.00058467
3027.69	-0.00136702
3037.34	-0.00109919
3046.98	-0.00136289
3056.62	-0.00108145
3066.26	-0.00133809
3075.9	-0.00151341
3085.55	-0.00144554
3095.19	-0.000882373
3104.83	-0.00125793
3114.47	-0.0015756
3124.12	-0.00118513
3133.76	-0.000797288
3143.4	-0.000909111
3153.04	-0.00156391
3162.68	-0.000954114
3172.33	-0.00134263
3181.97	-0.000861459
3191.61	-0.0015638
3201.26	-0.00120663
3210.9	-0.000443524
3220.54	-0.000551696
3230.18	-0.0012895
3239.82	-0.00110465
3249.47	-0.000386477
3259.11	-0.00125356
3268.75	-0.000891325
3278.39	-0.000985206
3288.04	-0.000670892
3297.68	-0.000288766
3307.32	3.10134e-06
3316.96	0.000875388
3326.61	0.00343321
3336.25	0.00500517
3345.89	0.00704832
3355.53	0.00851877
3365.17	0.00988527
3374.82	0.0104171
3384.46	0.00836972
3394.1	0.00567403
3403.74	0.00238334
3413.39	-0.000131013
3423.03	-0.00243351
3432.67	-0.0032581
3442.31	-0.00276761
3451.95	-0.0032102
3461.6	-0.0031977
3471.24	-0.00303587
3480.88	-0.00454672
3490.53	-0.00261024
3500.17	-0.00367333
3509.81	-0.00371551
3519.45	-0.00401669
3529.09	-0.00367992
3538.74	-0.00483332
3548.38	-0.00483657
3558.02	-0.00479076
3567.66	-0.00414914
3577.31	-0.00508632
3586.95	-0.00459298
3596.59	-0.00424412
3606.23	-0.00479179
3615.88	-0.00498117
3625.52	-0.00537738
3635.16	-0.00512367
3644.8	-0.00585228
3654.44	-0.00608408
3664.09	-0.00669037
3673.73	-0.0053593
3683.37	-0.00558612
3693.01	-0.00668077
3702.66	-0.00631605
3712.3	-0.006086
3721.94	-0.00677275
3731.58	-0.00507059
3741.22	-0.00619458
3750.87	-0.00538382
3760.51	-0.00698389
3770.15	-0.00580178
3779.8	-0.00580275
3789.44	-0.00710109
3799.08	-0.0067758
3808.72	-0.00643738
3818.36	-0.00703274
3828.01	-0.00662477
3837.65	-0.00529012
3847.29	-0.0065567
3856.93	-0.00642959
3866.58	-0.00675606
3876.22	-0.00732074
3885.86	-0.00588103
3895.5	-0.0073179
3905.14	-0.00695052
3914.79	-0.00690956
3924.43	-0.00625911
3934.07	-0.00743465
3943.71	-0.00619872
3953.36	-0.00584732
3963	-0.00677175
3972.64	-0.00729121
3982.28	-0.00719561
3991.93	-0.0074361
