Measurement: Infrared, Infrared Data Processed
Mineral: Mottramite
Rruff sample: R050521
Ideal chemistry: Pb^2+^Cu^2+^V^5+^O_4_(OH)
Locality: Tsumeb mine, Tsumeb, Otavi District, Oshikoto, Namibia
Source: University of Arizona Mineral Museum
Description: Green tubular sprays
Measured chemistry: Pb_1.00_Cu_1.00_((V_0.97_As_0.03_)_Î£=1_O_4_)(OH)
x	intensity
399.193	0.638066
408.835	0.682485
418.477	0.54749
428.12	0.428085
437.762	0.401444
447.404	0.45569
457.047	0.523515
466.689	0.61535
476.331	0.736637
485.974	0.763631
495.616	0.51167
505.258	0.386636
514.901	0.397202
524.543	0.453304
534.185	0.51187
543.828	0.562415
553.47	0.608263
563.112	0.65126
572.755	0.681413
582.397	0.71608
592.039	0.752548
601.682	0.785351
611.324	0.813498
620.966	0.83776
630.609	0.857163
640.251	0.883124
649.893	0.890679
659.536	0.8981
669.178	0.873847
678.82	0.831046
688.463	0.776674
698.105	0.717213
707.747	0.654562
717.39	0.586811
727.032	0.527875
736.674	0.467455
746.317	0.402887
755.959	0.348421
765.601	0.30406
775.244	0.266512
784.886	0.263584
794.528	0.306191
804.171	0.380977
813.813	0.432472
823.455	0.379982
833.098	0.303949
842.74	0.399749
852.382	0.300956
862.025	0.20941
871.667	0.134101
881.309	0.0742511
890.952	0.0472619
900.594	0.0408753
910.236	0.0396887
919.879	0.0498557
929.521	0.0848796
939.163	0.122651
948.806	0.0857558
958.448	0.0528365
968.09	0.053138
977.733	0.07342
987.375	0.138677
997.017	0.186976
1006.66	0.086431
1016.3	0.0529568
1025.94	0.0360919
1035.59	0.0301285
1045.23	0.0264357
1054.87	0.0243439
1064.51	0.0235731
1074.16	0.0235228
1083.8	0.0227718
1093.44	0.022741
1103.08	0.0245994
1112.72	0.0262646
1122.37	0.0262959
1132.01	0.0270088
1141.65	0.0281398
1151.3	0.0290365
1160.94	0.0293198
1170.58	0.0286009
1180.22	0.0305046
1189.86	0.0317993
1199.51	0.0318361
1209.15	0.0324382
1218.79	0.0341914
1228.43	0.0350603
1238.08	0.0362266
1247.72	0.0375162
1257.36	0.0389535
1267	0.0410302
1276.64	0.0460805
1286.29	0.0451643
1295.93	0.0446625
1305.57	0.0459661
1315.21	0.0476064
1324.86	0.0496136
1334.5	0.0517098
1344.14	0.0545187
1353.78	0.0575847
1363.43	0.0615891
1373.07	0.0659654
1382.71	0.0710325
1392.35	0.0762781
1401.99	0.0803146
1411.64	0.0837611
1421.28	0.0859906
1430.92	0.0868857
1440.57	0.0856688
1450.21	0.0834304
1459.85	0.0804809
1469.49	0.0773453
1479.13	0.0737664
1488.78	0.0714653
1498.42	0.0701124
1508.06	0.068489
1517.7	0.0664696
1527.35	0.0667159
1536.99	0.0666921
1546.63	0.0661841
1556.27	0.0657232
1565.91	0.0652913
1575.56	0.0658968
1585.2	0.0671931
1594.84	0.0681598
1604.48	0.0680766
1614.13	0.069218
1623.77	0.0704994
1633.41	0.071354
1643.05	0.0709965
1652.7	0.072225
1662.34	0.0731588
1671.98	0.0736122
1681.62	0.0744027
1691.27	0.0751863
1700.91	0.0760491
1710.55	0.0766937
1720.19	0.0787459
1729.84	0.0817306
1739.48	0.0801668
1749.12	0.0816708
1758.76	0.0848299
1768.4	0.0869606
1778.05	0.0872299
1787.69	0.0878376
1797.33	0.0906107
1806.97	0.0932344
1816.62	0.0974175
1826.26	0.100817
1835.9	0.0967156
1845.54	0.0887675
1855.18	0.0860097
1864.83	0.0841635
1874.47	0.0842306
1884.11	0.0848128
1893.75	0.0839534
1903.4	0.0835062
1913.04	0.0841267
1922.68	0.084848
1932.32	0.0867242
1941.97	0.0890737
1951.61	0.0910323
1961.25	0.0856836
1970.89	0.0801083
1980.54	0.080726
1990.18	0.0782507
1999.82	0.0787449
2009.46	0.0784529
2019.11	0.0804905
2028.75	0.0789125
2038.39	0.0783297
2048.03	0.080194
2057.67	0.0809594
2067.32	0.0803924
2076.96	0.0811163
2086.6	0.082596
2096.24	0.0823144
2105.89	0.08124
2115.53	0.0825222
2125.17	0.081888
2134.81	0.0814385
2144.45	0.0816221
2154.1	0.0822306
2163.74	0.0836441
2173.38	0.0832786
2183.02	0.0845005
2192.67	0.0856023
2202.31	0.0848389
2211.95	0.0855112
2221.59	0.0853129
2231.24	0.0864888
2240.88	0.0870602
2250.52	0.0869321
2260.16	0.0867568
2269.8	0.0873521
2279.45	0.0877247
2289.09	0.0881061
2298.73	0.087825
2308.38	0.0890608
2318.02	0.0888374
2327.66	0.0887767
2337.3	0.0894111
2346.94	0.0893898
2356.59	0.0902673
2366.23	0.0905734
2375.87	0.0901858
2385.51	0.0902495
2395.16	0.0912012
2404.8	0.0918624
2414.44	0.0914579
2424.08	0.0919224
2433.72	0.0928508
2443.37	0.0933634
2453.01	0.0934728
2462.65	0.0939798
2472.29	0.0943393
2481.94	0.0946569
2491.58	0.0949738
2501.22	0.0952563
2510.86	0.0971372
2520.51	0.095978
2530.15	0.0968269
2539.79	0.0971657
2549.43	0.0985043
2559.07	0.0983162
2568.72	0.0987938
2578.36	0.0997043
2588	0.0997603
2597.64	0.100995
2607.29	0.101462
2616.93	0.101425
2626.57	0.102828
2636.21	0.103027
2645.86	0.103592
2655.5	0.104362
2665.14	0.104386
2674.78	0.105051
2684.43	0.105735
2694.07	0.106375
2703.71	0.106824
2713.35	0.107247
2722.99	0.108601
2732.64	0.108867
2742.28	0.109239
2751.92	0.110892
2761.56	0.111499
2771.21	0.113132
2780.85	0.113548
2790.49	0.114814
2800.13	0.115848
2809.78	0.117263
2819.42	0.118476
2829.06	0.119473
2838.7	0.121747
2848.34	0.122935
2857.99	0.124011
2867.63	0.125434
2877.27	0.127313
2886.91	0.128963
2896.56	0.131325
2906.2	0.133536
2915.84	0.135277
2925.48	0.136811
2935.13	0.136955
2944.77	0.139237
2954.41	0.141235
2964.05	0.142366
2973.7	0.144221
2983.34	0.145418
2992.98	0.147947
3002.62	0.149472
3012.26	0.152376
3021.91	0.154778
3031.55	0.156227
3041.19	0.157833
3050.83	0.159956
3060.48	0.16074
3070.12	0.16174
3079.76	0.163518
3089.4	0.165727
3099.05	0.16602
3108.69	0.162245
3118.33	0.155954
3127.97	0.151709
3137.61	0.148546
3147.26	0.143847
3156.9	0.139429
3166.54	0.13383
3176.18	0.128652
3185.83	0.122793
3195.47	0.118671
3205.11	0.114082
3214.75	0.109106
3224.4	0.104743
3234.04	0.101086
3243.68	0.0973532
3253.32	0.0941893
3262.97	0.0913081
3272.61	0.0888687
3282.25	0.0861125
3291.89	0.0851415
3301.53	0.0827838
3311.18	0.0823278
3320.82	0.0811398
3330.46	0.0803716
3340.1	0.0794608
3349.75	0.0797101
3359.39	0.0799574
3369.03	0.0780879
3378.67	0.0797874
3388.32	0.0788521
3397.96	0.0801978
3407.6	0.0805301
3417.24	0.0788611
3426.89	0.0803021
3436.53	0.0799329
3446.17	0.0805972
3455.81	0.0810176
3465.45	0.081111
3475.1	0.0806718
3484.74	0.0810513
3494.38	0.0815379
3504.02	0.0825552
3513.67	0.0823786
3523.31	0.0820578
3532.95	0.0825918
3542.59	0.0835278
3552.24	0.083119
3561.88	0.0840872
3571.52	0.0832492
3581.16	0.0842835
3590.8	0.0838179
3600.45	0.0837962
3610.09	0.0842834
3619.73	0.0850786
3629.37	0.0845416
3639.02	0.0848569
3648.66	0.0869995
3658.3	0.0861977
3667.94	0.0866896
3677.59	0.0871237
3687.23	0.0865642
3696.87	0.0872916
3706.51	0.0862145
3716.16	0.0863843
3725.8	0.0880851
3735.44	0.088203
3745.08	0.089234
3754.72	0.0902093
3764.37	0.0883508
3774.01	0.0884062
3783.65	0.0891747
3793.29	0.0894919
3802.94	0.0913421
3812.58	0.0907777
3822.22	0.090607
3831.86	0.0908042
3841.51	0.0899727
3851.15	0.0911207
3860.79	0.0911522
3870.43	0.0897531
3880.07	0.0903748
3889.72	0.0903658
3899.36	0.091889
3909	0.091131
3918.64	0.0924262
3928.29	0.0919606
3937.93	0.0925073
3947.57	0.0921715
3957.21	0.0927462
3966.86	0.092185
3976.5	0.0921877
3986.14	0.0934908
3995.78	0.0933081
