Measurement: Infrared, Infrared Data Processed
Mineral: Nepheline
Rruff sample: R040025
Ideal chemistry: Na_3_K(Al_4_Si_4_O_16_)
Locality: Bancroft, Ontario, Canada
Source: University of Arizona Mineral Museum
Description: White massive mixture of 88% nepheline, 12% cancrinite
Measured chemistry: (Na_0.77_K_0.23_)_Î£=1_Al_1.00_Si_1.00_O_4_
x	intensity
399.193	0
408.835	0.153979
418.477	0.152679
428.12	0.154261
437.762	0.17336
447.404	0.193765
457.047	0.208469
466.689	0.210542
476.331	0.147344
485.974	0.0823086
495.616	0.0525077
505.258	0.0953799
514.901	0.0760769
524.543	0.0441846
534.185	0.0293805
543.828	0.0182005
553.47	0.0145301
563.112	0.0156903
572.755	0.0224438
582.397	0.0257362
592.039	0.0185182
601.682	0.0193448
611.324	0.0248914
620.966	0.0323352
630.609	0.031975
640.251	0.0290301
649.893	0.0350878
659.536	0.0485703
669.178	0.0776951
678.82	0.112146
688.463	0.131924
698.105	0.11347
707.747	0.0988246
717.39	0.0759527
727.032	0.0387234
736.674	0.0264996
746.317	0.0204911
755.959	0.0177662
765.601	0.0172864
775.244	0.0172747
784.886	0.016505
794.528	0.0174801
804.171	0.0190715
813.813	0.0216633
823.455	0.0252745
833.098	0.0295508
842.74	0.0353405
852.382	0.0442455
862.025	0.0503713
871.667	0.0615646
881.309	0.0756696
890.952	0.094391
900.594	0.116865
910.236	0.142316
919.879	0.170831
929.521	0.198832
939.163	0.223166
948.806	0.245487
958.448	0.266548
968.09	0.269579
977.733	0.262282
987.375	0.245981
997.017	0.224892
1006.66	0.189847
1016.3	0.163122
1025.94	0.138678
1035.59	0.121841
1045.23	0.102777
1054.87	0.0762193
1064.51	0.0716291
1074.16	0.0706725
1083.8	0.0644144
1093.44	0.0507379
1103.08	0.0350162
1112.72	0.029532
1122.37	0.0269951
1132.01	0.0222113
1141.65	0.0167244
1151.3	0.0127539
1160.94	0.00977531
1170.58	0.00738167
1180.22	0.00608592
1189.86	0.00481589
1199.51	0.00395574
1209.15	0.00333089
1218.79	0.00315608
1228.43	0.002907
1238.08	0.00253914
1247.72	0.00254932
1257.36	0.00221626
1267	0.00207632
1276.64	0.0021611
1286.29	0.00209191
1295.93	0.00207121
1305.57	0.00216753
1315.21	0.00223495
1324.86	0.00247846
1334.5	0.00260122
1344.14	0.0025766
1353.78	0.00277176
1363.43	0.00316311
1373.07	0.00428585
1382.71	0.00503319
1392.35	0.00580795
1401.99	0.00583302
1411.64	0.00456137
1421.28	0.00373807
1430.92	0.0036792
1440.57	0.00385634
1450.21	0.00489759
1459.85	0.00513158
1469.49	0.0062188
1479.13	0.00895504
1488.78	0.0104038
1498.42	0.00976389
1508.06	0.0097275
1517.7	0.0093854
1527.35	0.00516496
1536.99	0.00350228
1546.63	0.00333885
1556.27	0.00330146
1565.91	0.00392128
1575.56	0.00413976
1585.2	0.0044497
1594.84	0.00483553
1604.48	0.00503369
1614.13	0.00494748
1623.77	0.0057007
1633.41	0.00508663
1643.05	0.00462084
1652.7	0.00435986
1662.34	0.0047043
1671.98	0.00404326
1681.62	0.00386711
1691.27	0.00408803
1700.91	0.00402627
1710.55	0.00381
1720.19	0.00335666
1729.84	0.0030654
1739.48	0.00275224
1749.12	0.0024669
1758.76	0.00169383
1768.4	0.00201918
1778.05	0.00147273
1787.69	0.00176689
1797.33	0.00132739
1806.97	0.0015406
1816.62	0.000749287
1826.26	0.00100921
1835.9	0.000809261
1845.54	0.000381536
1855.18	0.000364261
1864.83	0.000425917
1874.47	0.000317945
1884.11	-0.000332204
1893.75	-0.00124544
1903.4	-0.00116205
1913.04	-0.00111743
1922.68	-0.00209946
1932.32	-0.00273905
1941.97	-0.00265512
1951.61	-0.00359925
1961.25	-0.0042585
1970.89	-0.00925903
1980.54	-0.00398262
1990.18	-0.00591571
1999.82	-0.00529637
2009.46	-0.00606306
2019.11	-0.00618028
2028.75	-0.00468267
2038.39	-0.00307605
2048.03	-0.00251847
2057.67	-0.000963145
2067.32	-0.000265386
2076.96	-8.59963e-05
2086.6	-0.000585693
2096.24	-0.0011578
2105.89	0.000467203
2115.53	-0.000420773
2125.17	-0.000806066
2134.81	-0.00171108
2144.45	-0.000680081
2154.1	-0.00596358
2163.74	-0.000640006
2173.38	-0.00275453
2183.02	-0.00338343
2192.67	0.000305578
2202.31	0.000825272
2211.95	-0.00110119
2221.59	0.00302459
2231.24	0.00105964
2240.88	0.00201456
2250.52	0.000895501
2260.16	0.00251869
2269.8	0.00393503
2279.45	0.00477581
2289.09	0.00396939
2298.73	0.00390283
2308.38	0.00404922
2318.02	0.0043263
2327.66	0.00370988
2337.3	0.0032352
2346.94	0.00363917
2356.59	0.00371593
2366.23	0.00313245
2375.87	0.0038705
2385.51	0.00363604
2395.16	0.00367567
2404.8	0.00362227
2414.44	0.00375253
2424.08	0.0039715
2433.72	0.00306718
2443.37	0.00395447
2453.01	0.00480024
2462.65	0.00432486
2472.29	0.00405752
2481.94	0.00384486
2491.58	0.0030769
2501.22	0.00369438
2510.86	0.00479161
2520.51	0.00413078
2530.15	0.00373515
2539.79	0.00361575
2549.43	0.00451901
2559.07	0.00392058
2568.72	0.00483627
2578.36	0.00451481
2588	0.00378608
2597.64	0.00376303
2607.29	0.00510377
2616.93	0.00428379
2626.57	0.00455287
2636.21	0.00479877
2645.86	0.00425568
2655.5	0.00483585
2665.14	0.00453074
2674.78	0.00329672
2684.43	0.00389078
2694.07	0.00336254
2703.71	0.00353338
2713.35	0.00356418
2722.99	0.00437247
2732.64	0.00454666
2742.28	0.0037502
2751.92	0.00321387
2761.56	0.00421734
2771.21	0.00321137
2780.85	0.00425979
2790.49	0.00346442
2800.13	0.00398401
2809.78	0.00392707
2819.42	0.00372707
2829.06	0.00437341
2838.7	0.0044155
2848.34	0.00371312
2857.99	0.00414112
2867.63	0.00388081
2877.27	0.00478391
2886.91	0.00288869
2896.56	0.00505057
2906.2	0.00438413
2915.84	0.00429668
2925.48	0.00393643
2935.13	0.00392466
2944.77	0.00407094
2954.41	0.00396749
2964.05	0.00381562
2973.7	0.0042417
2983.34	0.00461127
2992.98	0.0048114
3002.62	0.00459788
3012.26	0.00459784
3021.91	0.00368628
3031.55	0.00428413
3041.19	0.00444373
3050.83	0.00336577
3060.48	0.00424744
3070.12	0.00412063
3079.76	0.00560677
3089.4	0.00530004
3099.05	0.00307132
3108.69	0.00435305
3118.33	0.00500218
3127.97	0.00388169
3137.61	0.00534064
3147.26	0.00405326
3156.9	0.00615792
3166.54	0.0033295
3176.18	0.00401257
3185.83	0.00521001
3195.47	0.0053471
3205.11	0.00367571
3214.75	0.00574559
3224.4	0.00397722
3234.04	0.00559338
3243.68	0.00403598
3253.32	0.00399843
3262.97	0.00617262
3272.61	0.00593138
3282.25	0.00575081
3291.89	0.00428764
3301.53	0.00629474
3311.18	0.00448191
3320.82	0.00567869
3330.46	0.00632947
3340.1	0.00486629
3349.75	0.00492453
3359.39	0.00570606
3369.03	0.00644969
3378.67	0.00673674
3388.32	0.0064872
3397.96	0.00397842
3407.6	0.00489057
3417.24	0.00570554
3426.89	0.00499736
3436.53	0.00604658
3446.17	0.00420114
3455.81	0.00524025
3465.45	0.00634359
3475.1	0.00468257
3484.74	0.00553632
3494.38	0.0054327
3504.02	0.00521855
3513.67	0.00597247
3523.31	0.00513555
3532.95	0.00392107
3542.59	0.00452941
3552.24	0.00647297
3561.88	0.0065598
3571.52	0.00522256
3581.16	0.00527019
3590.8	0.00238619
3600.45	0.00492253
3610.09	0.00589847
3619.73	0.00600984
3629.37	0.004294
3639.02	0.00409181
3648.66	0.00632421
3658.3	0.00196627
3667.94	0.00330866
3677.59	0.00473508
3687.23	0.00530849
3696.87	0.00471011
3706.51	0.00351608
3716.16	0.00632492
3725.8	0.00304446
3735.44	0.00105671
3745.08	0.00397934
3754.72	0.00252693
3764.37	0.00262305
3774.01	0.00498964
3783.65	0.00195256
3793.29	0.00523541
3802.94	0.00318413
3812.58	0.00602224
3822.22	0.00298131
3831.86	0.00245588
3841.51	0.00593942
3851.15	0.00152449
3860.79	0.00230768
3870.43	0.00408877
3880.07	0.00404047
3889.72	0.00450325
3899.36	0.00186537
3909	0.00110923
3918.64	0.00353797
3928.29	0.00411589
3937.93	0.003003
3947.57	0.00124286
3957.21	0.00241406
3966.86	0.00417917
3976.5	0.00482222
3986.14	0.00453346
3995.78	0.00349065
