Measurement: Infrared, Infrared Data Processed
Mineral: Nitratine
Rruff sample: R050658
Ideal chemistry: NaN^5+^O_3_
Locality: Peru
Source: University of Arizona Mineral Museum
Description: Group of colorless crystals
Measured chemistry: Na_0.92_N_1.00_O_2.96_ ; N not measured but estimated by difference and stoichiometry
x	intensity
374.123	0.00830123
383.765	0.00296195
393.407	0.00278049
403.05	0.00546807
412.692	0.00417734
422.334	0.00536186
431.976	0.00478173
441.619	0.00655778
451.261	0.00657347
460.904	0.00650837
470.546	0.0073221
480.188	0.00735341
489.83	0.00677494
499.473	0.00763927
509.115	0.00703024
518.758	0.00735864
528.4	0.0071931
538.042	0.00864959
547.684	0.00793758
557.327	0.00796559
566.969	0.00860472
576.611	0.00802132
586.254	0.00891073
595.896	0.00872918
605.538	0.00940752
615.181	0.00961481
624.823	0.00948097
634.466	0.00988153
644.108	0.0102255
653.75	0.0103492
663.393	0.0108907
673.035	0.0110457
682.677	0.0114882
692.319	0.0116248
701.962	0.0116974
711.604	0.0119898
721.246	0.0127066
730.889	0.0123156
740.531	0.012898
750.173	0.0132827
759.816	0.013543
769.458	0.0140535
779.101	0.0146272
788.743	0.0151214
798.385	0.0156876
808.028	0.0164393
817.67	0.0187098
827.312	0.0313175
836.955	0.0635263
846.597	0.0162472
856.239	0.0164924
865.881	0.0171377
875.524	0.0177285
885.166	0.0185403
894.808	0.0191123
904.451	0.0196652
914.093	0.0202922
923.736	0.02114
933.378	0.0217925
943.02	0.0222192
952.663	0.0230118
962.305	0.0238694
971.947	0.0247754
981.59	0.0256958
991.232	0.0270293
1000.87	0.0284537
1010.52	0.0291963
1020.16	0.0303565
1029.8	0.0316418
1039.44	0.0326902
1049.09	0.0337605
1058.73	0.0345298
1068.37	0.0360422
1078.01	0.0374358
1087.65	0.0393304
1097.3	0.0411173
1106.94	0.0435136
1116.58	0.0460745
1126.22	0.0485708
1135.87	0.0513957
1145.51	0.0549251
1155.15	0.0584616
1164.79	0.0621046
1174.44	0.0662112
1184.08	0.0705026
1193.72	0.075322
1203.36	0.081242
1213.01	0.0874008
1222.65	0.0938709
1232.29	0.101252
1241.93	0.108803
1251.58	0.116768
1261.22	0.125667
1270.86	0.13481
1280.5	0.143672
1290.14	0.152656
1299.79	0.161961
1309.43	0.171341
1319.07	0.179596
1328.71	0.186169
1338.36	0.190952
1348	0.189225
1357.64	0.168748
1367.28	0.141923
1376.92	0.119405
1386.57	0.103754
1396.21	0.0905653
1405.85	0.0782018
1415.49	0.0659041
1425.14	0.0538275
1434.78	0.0461225
1444.42	0.0402978
1454.06	0.0347328
1463.71	0.0146466
1473.35	0.00459553
1482.99	0.0034858
1492.63	0.00236948
1502.28	0.00175816
1511.92	0.000795253
1521.56	0.000386659
1531.2	0.000180363
1540.85	-0.000156676
1550.49	-0.000282443
1560.13	-3.61151e-05
1569.77	-0.000294283
1579.41	-0.000378972
1589.06	-0.000691765
1598.7	-0.000482426
1608.34	-0.0008559
1617.98	-0.000880753
1627.63	-0.000793638
1637.27	-0.000904386
1646.91	-0.000521916
1656.55	-0.000896532
1666.19	-0.00103054
1675.84	-0.00103712
1685.48	-0.000771841
1695.12	-0.000641417
1704.77	-0.000688341
1714.41	-0.000814687
1724.05	-0.000743477
1733.69	-0.000703543
1743.33	-0.00113126
1752.98	-0.000670081
1762.62	-0.000156057
1772.26	0.000219657
1781.9	0.00305803
1791.55	0.00838246
1801.19	-0.000220219
1810.83	4.41089e-05
1820.47	-5.27348e-05
1830.12	0.000351985
1839.76	5.24856e-05
1849.4	0.00024519
1859.04	0.000460164
1868.68	0.000376613
1878.33	0.000493792
1887.97	0.000484735
1897.61	0.00110618
1907.25	0.00046279
1916.9	0.000243902
1926.54	0.000691097
1936.18	0.000656129
1945.82	0.000923074
1955.46	0.000944357
1965.11	0.000687732
1974.75	-0.000370743
1984.39	0.00029251
1994.04	0.000366341
2003.68	0.000158866
2013.32	0.00145219
2022.96	-8.52437e-05
2032.6	0.000299422
2042.25	0.0012839
2051.89	0.000903209
2061.53	0.00118976
2071.17	0.000828189
2080.82	0.00224062
2090.46	0.00168436
2100.1	0.00289857
2109.74	0.00161255
2119.39	0.000833106
2129.03	0.000960236
2138.67	0.000714368
2148.31	0.000636627
2157.95	-0.00156068
2167.6	-0.000777162
2177.24	6.33611e-05
2186.88	2.54891e-06
2196.52	0.00051693
2206.17	4.19361e-05
2215.81	0.000294483
2225.45	-0.000210879
2235.09	-0.000318046
2244.74	-0.000273486
2254.38	0.000792583
2264.02	0.000446517
2273.66	0.00149275
2283.3	0.0019716
2292.95	0.00164839
2302.59	0.00200608
2312.23	0.00213566
2321.87	0.00305774
2331.52	0.00275385
2341.16	0.00253421
2350.8	0.00257816
2360.44	0.00291095
2370.09	0.00247721
2379.73	0.00238376
2389.37	0.00261801
2399.01	0.00271375
2408.66	0.00406147
2418.3	0.00797512
2427.94	0.0140868
2437.58	0.0121585
2447.22	0.00979258
2456.87	0.00638236
2466.51	0.00417159
2476.15	0.00484367
2485.79	0.00391476
2495.44	0.00335457
2505.08	0.00270212
2514.72	0.00115245
2524.36	0.000151116
2534.01	-0.00101393
2543.65	-0.000500283
2553.29	-0.00108258
2562.93	-0.00110554
2572.57	-0.000768889
2582.22	-0.000613963
2591.86	-0.000289052
2601.5	-0.000345575
2611.14	0.000198048
2620.79	0.000392007
2630.43	0.00041722
2640.07	0.000476304
2649.71	0.000671874
2659.36	0.000639817
2669	0.00105619
2678.64	0.000855592
2688.28	0.000877547
2697.93	0.000824043
2707.57	0.00141594
2717.21	0.00162298
2726.85	0.0020742
2736.49	0.0033057
2746.14	0.00420272
2755.78	0.00487316
2765.42	0.00515307
2775.06	0.00380797
2784.71	0.00368523
2794.35	0.00373911
2803.99	0.00421954
2813.63	0.00439626
2823.28	0.00457712
2832.92	0.00481859
2842.56	0.00478383
2852.2	0.00419463
2861.84	0.0037324
2871.49	0.00331485
2881.13	0.00365575
2890.77	0.00293783
2900.41	0.00288385
2910.06	0.00275051
2919.7	0.00152041
2929.34	0.00368096
2938.98	0.00397261
2948.62	0.00376691
2958.27	0.00373685
2967.91	0.00355081
2977.55	0.00391546
2987.2	0.0036893
2996.84	0.00410178
3006.48	0.00397418
3016.12	0.00136427
3025.76	0.00409289
3035.41	0.00406366
3045.05	0.0040287
3054.69	0.00375388
3064.33	0.00351303
3073.98	0.0041341
3083.62	0.00350083
3093.26	0.00412406
3102.9	0.00332988
3112.55	0.00369251
3122.19	0.0035074
3131.83	0.00449144
3141.47	0.00418899
3151.11	0.00404885
3160.76	0.00441632
3170.4	0.00474125
3180.04	0.00431517
3189.68	0.00437947
3199.33	0.00434381
3208.97	0.00481284
3218.61	0.0043469
3228.25	0.00422132
3237.9	0.00430776
3247.54	0.00456898
3257.18	0.00455181
3266.82	0.00493281
3276.47	0.00423728
3286.11	0.00462428
3295.75	0.00456907
3305.39	0.00451027
3315.03	0.00453512
3324.68	0.0043143
3334.32	0.00405061
3343.96	0.0044426
3353.6	0.00494604
3363.25	0.00466858
3372.89	0.0045728
3382.53	0.00427293
3392.17	0.00427521
3401.82	0.00425834
3411.46	0.00396744
3421.1	0.00473697
3430.74	0.00401499
3440.39	0.0040103
3450.03	0.00467068
3459.67	0.00506098
3469.31	0.00446463
3478.95	0.0049153
3488.6	0.00470897
3498.24	0.00461273
3507.88	0.00422716
3517.52	0.00470625
3527.17	0.00476842
3536.81	0.0043667
3546.45	0.00446984
3556.09	0.00399561
3565.74	0.00336317
3575.38	0.00293261
3585.02	0.00375884
3594.66	0.00341932
3604.3	0.00395057
3613.95	0.0035227
3623.59	0.0040588
3633.23	0.00449731
3642.87	0.00327545
3652.52	0.00270483
3662.16	0.00270471
3671.8	0.00390613
3681.44	0.00407161
3691.09	0.0036498
3700.73	0.003572
3710.37	0.00227644
3720.01	0.00411752
3729.66	0.00325291
3739.3	0.0030272
3748.94	0.00379164
3758.58	0.0029596
3768.22	0.00302055
3777.87	0.00311777
3787.51	0.00340559
3797.15	0.0042942
3806.79	0.00339061
3816.44	0.0030045
3826.08	0.00365381
3835.72	0.00357842
3845.36	0.00304072
3855.01	0.00321853
3864.65	0.00346175
3874.29	0.00351219
3883.93	0.00326044
3893.57	0.00329465
3903.22	0.00283288
3912.86	0.00438156
3922.5	0.00361138
3932.14	0.00344989
3941.79	0.00382052
3951.43	0.00358689
3961.07	0.00383229
3970.71	0.00370794
3980.36	0.00404558
3990	0.00366468
3999.64	0.00418734
