Measurement: Infrared, Infrared Data Processed
Mineral: Olmiite
Rruff sample: R050144
Ideal chemistry: CaMn^2+^SiO_3_(OH)_2_
Locality: N'Chwaning II mine, Kuruman, South Africa
Source: Rock Currier
Description: Tan colored prismatic crystals associated with fibrous bultfonteinite, R050088
Measured chemistry: Ca_1.00_(Mn_0.98_Ca_0.02_)(Si_1.00_O_3_OH)(OH)
x	intensity
50.1401	0.0171578
52.0686	0.011128
53.9971	0.00932776
55.9255	0.0116989
57.854	0.0162756
59.7825	0.0172562
61.7109	0.0180621
63.6394	0.0202991
65.5679	0.0186047
67.4963	0.0201399
69.4248	0.0224806
71.3533	0.0236707
73.2817	0.0221261
75.2102	0.0212821
77.1387	0.0232911
79.0671	0.0246844
80.9956	0.0245041
82.9241	0.0248073
84.8525	0.0254356
86.781	0.0254201
88.7095	0.0258231
90.6379	0.0258218
92.5664	0.0267092
94.4948	0.0271047
96.4233	0.0277755
98.3518	0.0293528
100.28	0.0304704
102.209	0.0325116
104.137	0.0345034
106.066	0.0356351
107.994	0.0369153
109.923	0.0370636
111.851	0.0355025
113.779	0.0324853
115.708	0.0317132
117.636	0.032856
119.565	0.0344988
121.493	0.0360781
123.422	0.0373742
125.35	0.0388193
127.279	0.0410327
129.207	0.0421512
131.136	0.041564
133.064	0.0408438
134.993	0.0405374
136.921	0.0398224
138.85	0.0366988
140.778	0.0335152
142.707	0.0335322
144.635	0.0346964
146.563	0.0365589
148.492	0.0391647
150.42	0.0411189
152.349	0.0427172
154.277	0.044551
156.206	0.0465522
158.134	0.0483856
160.063	0.0488535
161.991	0.0494786
163.92	0.049987
165.848	0.0493188
167.777	0.0468536
169.705	0.0444062
171.633	0.0437575
173.562	0.0448687
175.49	0.0457027
177.419	0.0457888
179.347	0.0470036
181.276	0.0488563
183.204	0.0503527
185.133	0.0517176
187.061	0.0532411
188.99	0.0545752
190.918	0.0558834
192.847	0.0569419
194.775	0.0563684
196.704	0.0546249
198.632	0.0534082
200.56	0.0537731
202.489	0.0555013
204.417	0.0568227
206.346	0.057118
208.274	0.0557533
210.203	0.054052
212.131	0.0543755
214.06	0.055636
215.988	0.0575443
217.917	0.0592893
219.845	0.0604205
221.774	0.0609363
223.702	0.060364
225.631	0.0600323
227.559	0.0609872
229.488	0.0615533
231.416	0.0626522
233.344	0.063953
235.273	0.0635984
237.201	0.0613796
239.13	0.0587901
241.058	0.0570149
242.987	0.0564695
244.915	0.0580835
246.844	0.0609387
248.772	0.063645
250.701	0.0657716
252.629	0.0674828
254.558	0.0676449
256.486	0.0667405
258.414	0.0663441
260.343	0.066563
262.271	0.0669185
264.2	0.0676219
266.128	0.0686105
268.057	0.0696258
269.985	0.0708268
271.914	0.0720562
273.842	0.0727916
275.771	0.073207
277.699	0.0732296
279.628	0.0725654
281.556	0.0715306
283.485	0.0701647
285.413	0.0683263
287.341	0.0669383
289.27	0.0665327
291.198	0.0669251
293.127	0.0678386
295.055	0.0693226
296.984	0.070733
298.912	0.0713714
300.841	0.0717242
302.769	0.0714066
304.698	0.0700246
306.626	0.0687723
308.555	0.0686149
310.483	0.0692033
312.411	0.0701195
314.34	0.0711007
316.269	0.0718966
318.197	0.0726468
320.125	0.073729
322.054	0.0746247
323.982	0.0750949
325.911	0.0751267
327.839	0.0749025
329.768	0.0742981
331.696	0.0734709
333.625	0.0726868
335.553	0.0727294
337.482	0.0731991
339.41	0.0733864
341.339	0.0736652
343.267	0.0745885
345.195	0.0762737
347.124	0.0781586
349.052	0.0796157
350.981	0.0805545
352.909	0.0801724
354.838	0.0787829
356.766	0.0774089
358.695	0.0752981
360.623	0.0721656
362.552	0.0692716
364.48	0.0660163
366.409	0.0624059
368.337	0.0591855
370.265	0.0564625
372.194	0.0540267
374.122	0.0525907
376.051	0.0515084
377.979	0.0508131
379.908	0.0505653
381.836	0.0501963
383.765	0.0494633
385.693	0.0485741
387.622	0.0476256
389.55	0.0470349
391.479	0.0466546
393.407	0.0469069
395.336	0.0475097
397.264	0.048564
399.192	0.0496601
401.121	0.0506286
403.049	0.0512793
404.978	0.0517395
406.906	0.0520954
408.835	0.0522906
410.763	0.0527894
412.692	0.0537527
414.62	0.0548663
416.549	0.056458
418.477	0.0582135
420.406	0.0596922
422.334	0.0609198
424.262	0.0621921
426.191	0.0636389
428.12	0.0646675
430.048	0.0651701
431.976	0.0653378
433.905	0.0650656
435.833	0.0639874
437.762	0.0624239
439.69	0.0607582
441.619	0.0582587
443.547	0.0556595
445.476	0.053734
447.404	0.0524236
449.333	0.0517431
451.261	0.0524551
453.19	0.0542897
455.118	0.0570259
457.046	0.0608086
458.975	0.0652925
460.903	0.0698831
462.832	0.0748257
464.76	0.0798582
466.689	0.0843046
468.617	0.0877075
470.546	0.0889954
472.474	0.0883383
474.403	0.0865529
476.331	0.0840222
478.26	0.081115
480.188	0.0784111
482.116	0.0766975
484.045	0.0757518
485.974	0.0757773
487.902	0.0756568
489.83	0.0754549
491.759	0.0752228
493.687	0.0751581
495.616	0.0749469
497.544	0.0749883
499.473	0.0753142
501.401	0.0763169
503.33	0.0776583
505.258	0.0793085
507.187	0.0806927
509.115	0.0820825
511.043	0.0830065
512.972	0.0832757
514.9	0.0829517
516.829	0.0819566
518.757	0.0797288
520.686	0.0763076
522.614	0.0721137
524.543	0.0674643
526.471	0.0627663
528.4	0.0587038
530.328	0.0545229
532.257	0.0509249
534.185	0.0478409
536.114	0.0450622
538.042	0.0426623
539.971	0.0408646
541.899	0.0394202
543.827	0.0381247
545.756	0.0372787
547.684	0.036804
549.613	0.0363123
551.541	0.0356681
553.47	0.0352979
555.398	0.0351313
557.327	0.0349554
559.255	0.0351143
561.184	0.0352746
563.112	0.0351407
565.041	0.0350396
566.969	0.0349588
568.898	0.0348543
570.826	0.035013
572.755	0.0351909
574.683	0.0353389
576.611	0.0358164
578.54	0.0361183
580.468	0.0360233
582.397	0.0359305
584.325	0.0359397
586.254	0.0363637
588.182	0.0361475
590.111	0.0360236
592.039	0.0359879
593.968	0.0356771
595.896	0.0357535
597.824	0.0359444
599.753	0.0356065
601.682	0.0351141
603.61	0.0348943
605.538	0.0348636
607.467	0.0347588
609.395	0.0351431
611.324	0.0356441
613.252	0.0362609
615.181	0.0368683
617.109	0.0373719
619.038	0.0382348
620.966	0.0391663
622.894	0.0392363
624.823	0.0402295
626.751	0.0424885
628.68	0.0451312
630.608	0.047179
632.537	0.0482812
634.465	0.0489591
636.394	0.0498816
638.322	0.0507899
640.251	0.0516195
642.179	0.0527584
644.108	0.0540293
646.036	0.0552148
647.965	0.0564606
649.893	0.0575626
651.822	0.0583686
653.75	0.0591021
655.678	0.0602801
657.607	0.0616261
659.535	0.0626139
661.464	0.0636058
663.392	0.0648741
665.321	0.0654209
667.249	0.0659396
669.178	0.0670017
671.106	0.0675344
673.035	0.0678459
674.963	0.0679711
676.892	0.0677912
678.82	0.0678814
680.749	0.0677508
682.677	0.0681222
684.606	0.0691187
686.534	0.0696158
688.462	0.0699087
690.391	0.0705554
692.319	0.0720611
694.248	0.0743843
696.176	0.0761914
698.105	0.0776897
700.033	0.0795582
