Measurement: Infrared, Infrared Data Processed
Mineral: Olmiite
Rruff sample: R050177
Ideal chemistry: CaMn^2+^SiO_3_(OH)_2_
Locality: N'Chwaning II mine, Kuruman, South Africa
Source: Marcus Origlieri
Description: Gray etched crystals
Measured chemistry: Ca_1.00_(Mn_0.98_Ca_0.02_)(Si_1.00_O_3_OH)(OH)
x	intensity
374.123	0.080689
383.765	0.0559688
393.407	0.0658404
403.05	0.0798712
412.692	0.08986
422.334	0.109476
431.976	0.113961
441.619	0.0896221
451.261	0.0650492
460.904	0.116033
470.546	0.188201
480.188	0.139403
489.83	0.132157
499.473	0.128425
509.115	0.14432
518.758	0.131996
528.4	0.0704732
538.042	0.0363482
547.684	0.024638
557.327	0.0210427
566.969	0.0218897
576.611	0.0208952
586.254	0.0218942
595.896	0.0239881
605.538	0.024378
615.181	0.0256033
624.823	0.0286606
634.466	0.0322844
644.108	0.035409
653.75	0.0409571
663.393	0.0501432
673.035	0.0554075
682.677	0.0562725
692.319	0.0665861
701.962	0.0875471
711.604	0.119359
721.246	0.135912
730.889	0.10835
740.531	0.0741763
750.173	0.0642968
759.816	0.0799674
769.458	0.122493
779.101	0.170331
788.743	0.156284
798.385	0.107711
808.028	0.119602
817.67	0.140934
827.312	0.123206
836.955	0.110751
846.597	0.17221
856.239	0.206756
865.881	0.198469
875.524	0.181998
885.166	0.123853
894.808	0.111395
904.451	0.0956415
914.093	0.096972
923.736	0.125467
933.378	0.126738
943.02	0.11504
952.663	0.146453
962.305	0.213996
971.947	0.23487
981.59	0.160969
991.232	0.0934784
1000.87	0.0547378
1010.52	0.0327931
1020.16	0.0214911
1029.8	0.0171352
1039.44	0.0159422
1049.09	0.0149322
1058.73	0.0130805
1068.37	0.0122549
1078.01	0.013369
1087.65	0.0144223
1097.3	0.0117864
1106.94	0.0108287
1116.58	0.0110231
1126.22	0.011897
1135.87	0.0142375
1145.51	0.0139551
1155.15	0.0127135
1164.79	0.0142674
1174.44	0.0131591
1184.08	0.0117765
1193.72	0.01135
1203.36	0.0115785
1213.01	0.0119319
1222.65	0.0123265
1232.29	0.0128553
1241.93	0.0132766
1251.58	0.0136323
1261.22	0.0143308
1270.86	0.015698
1280.5	0.0171666
1290.14	0.0190458
1299.79	0.0232389
1309.43	0.0291399
1319.07	0.0457555
1328.71	0.0925014
1338.36	0.0758766
1348	0.0315563
1357.64	0.0196483
1367.28	0.0168054
1376.92	0.0161551
1386.57	0.0169402
1396.21	0.0179434
1405.85	0.0194103
1415.49	0.0206974
1425.14	0.0215697
1434.78	0.021312
1444.42	0.02103
1454.06	0.0212747
1463.71	0.021407
1473.35	0.0220632
1482.99	0.0223844
1492.63	0.0231641
1502.28	0.0237444
1511.92	0.0243064
1521.56	0.0250752
1531.2	0.0251378
1540.85	0.0265891
1550.49	0.0270826
1560.13	0.0291954
1569.77	0.0292829
1579.41	0.030272
1589.06	0.0312451
1598.7	0.0327583
1608.34	0.0337431
1617.98	0.0352512
1627.63	0.0362841
1637.27	0.0375264
1646.91	0.038913
1656.55	0.0396373
1666.19	0.0401086
1675.84	0.0407266
1685.48	0.0413736
1695.12	0.0424211
1704.77	0.0425109
1714.41	0.0431135
1724.05	0.0424654
1733.69	0.0420513
1743.33	0.0413748
1752.98	0.0419229
1762.62	0.0413305
1772.26	0.0411087
1781.9	0.0400008
1791.55	0.0389571
1801.19	0.0377792
1810.83	0.0370384
1820.47	0.0368591
1830.12	0.0362018
1839.76	0.0347066
1849.4	0.033725
1859.04	0.033365
1868.68	0.0333292
1878.33	0.0333812
1887.97	0.0323934
1897.61	0.0319792
1907.25	0.0310521
1916.9	0.0302165
1926.54	0.0286059
1936.18	0.0285859
1945.82	0.027038
1955.46	0.0257708
1965.11	0.0255326
1974.75	0.0260839
1984.39	0.0296173
1994.04	0.0299347
2003.68	0.0267033
2013.32	0.0293093
2022.96	0.0282728
2032.6	0.031143
2042.25	0.0307748
2051.89	0.0314786
2061.53	0.03137
2071.17	0.0311189
2080.82	0.0319187
2090.46	0.0314312
2100.1	0.0331181
2109.74	0.0332907
2119.39	0.0323483
2129.03	0.0304669
2138.67	0.0315795
2148.31	0.0321395
2157.95	0.0291409
2167.6	0.0348102
2177.24	0.0327182
2186.88	0.0355087
2196.52	0.0358578
2206.17	0.0362646
2215.81	0.0361067
2225.45	0.0376076
2235.09	0.037414
2244.74	0.0384387
2254.38	0.0384751
2264.02	0.039054
2273.66	0.0401172
2283.3	0.0416378
2292.95	0.0413979
2302.59	0.041604
2312.23	0.0424242
2321.87	0.0435871
2331.52	0.04233
2341.16	0.0428631
2350.8	0.0423211
2360.44	0.0421408
2370.09	0.0428458
2379.73	0.0421712
2389.37	0.0416997
2399.01	0.0407832
2408.66	0.040525
2418.3	0.0394406
2427.94	0.0388027
2437.58	0.0380371
2447.22	0.0367517
2456.87	0.0358872
2466.51	0.034769
2476.15	0.0335261
2485.79	0.0328399
2495.44	0.0319393
2505.08	0.0304394
2514.72	0.0298755
2524.36	0.0282219
2534.01	0.0279734
2543.65	0.0272901
2553.29	0.0269109
2562.93	0.0264234
2572.57	0.0247193
2582.22	0.0233461
2591.86	0.0226138
2601.5	0.0217569
2611.14	0.0208493
2620.79	0.0210943
2630.43	0.0205125
2640.07	0.0206213
2649.71	0.020863
2659.36	0.0215163
2669	0.0221151
2678.64	0.0236783
2688.28	0.024841
2697.93	0.0256881
2707.57	0.0273918
2717.21	0.0281747
2726.85	0.0284971
2736.49	0.0295207
2746.14	0.0305384
2755.78	0.0314767
2765.42	0.0316198
2775.06	0.0317013
2784.71	0.0319254
2794.35	0.0317803
2803.99	0.0315064
2813.63	0.0311063
2823.28	0.030531
2832.92	0.0297912
2842.56	0.0288099
2852.2	0.0277094
2861.84	0.0270083
2871.49	0.0261062
2881.13	0.0249338
2890.77	0.0241104
2900.41	0.0238657
2910.06	0.0224312
2919.7	0.02195
2929.34	0.0214412
2938.98	0.020692
2948.62	0.020502
2958.27	0.0196148
2967.91	0.0189178
2977.55	0.0182962
2987.2	0.0185842
2996.84	0.0181049
3006.48	0.017715
3016.12	0.0169063
3025.76	0.0174786
3035.41	0.0172661
3045.05	0.0174953
3054.69	0.0177169
3064.33	0.0171467
3073.98	0.0163311
3083.62	0.0168721
3093.26	0.0171021
3102.9	0.0160036
3112.55	0.0164617
3122.19	0.0168941
3131.83	0.0174053
3141.47	0.0172667
3151.11	0.0172796
3160.76	0.0177572
3170.4	0.0167255
3180.04	0.0175913
3189.68	0.0177458
3199.33	0.0172952
3208.97	0.0174105
3218.61	0.0177053
3228.25	0.0185219
3237.9	0.0185012
3247.54	0.0198608
3257.18	0.0195927
3266.82	0.0202411
3276.47	0.019607
3286.11	0.0189399
3295.75	0.0189379
3305.39	0.0192772
3315.03	0.0201663
3324.68	0.0203231
3334.32	0.0205938
3343.96	0.0204194
3353.6	0.0193231
3363.25	0.0200145
3372.89	0.0187232
3382.53	0.0188802
3392.17	0.0188993
3401.82	0.0191845
3411.46	0.0194818
3421.1	0.0193996
3430.74	0.0200953
3440.39	0.0208883
3450.03	0.0206595
3459.67	0.0219982
3469.31	0.0239133
3478.95	0.0300849
3488.6	0.0418815
3498.24	0.0531687
3507.88	0.107481
3517.52	0.0492905
3527.17	0.0174629
3536.81	0.0159241
3546.45	0.0131064
3556.09	0.010295
3565.74	0.00979543
3575.38	0.0101547
3585.02	0.0106163
3594.66	0.00892312
3604.3	0.00926658
3613.95	0.00897111
3623.59	0.00829484
3633.23	0.007265
3642.87	0.00718194
3652.52	0.00938859
3662.16	0.00916988
3671.8	0.00899445
3681.44	0.00861159
3691.09	0.00863267
3700.73	0.00957246
3710.37	0.00911008
3720.01	0.00793874
3729.66	0.00880973
3739.3	0.0090874
3748.94	0.0112006
3758.58	0.010342
3768.22	0.0100765
3777.87	0.0100474
3787.51	0.00919738
3797.15	0.00935719
3806.79	0.00882162
3816.44	0.0102936
3826.08	0.00986252
3835.72	0.00962901
3845.36	0.00999029
3855.01	0.0113501
3864.65	0.00894102
3874.29	0.00843169
3883.93	0.00845759
3893.57	0.00893142
3903.22	0.00889646
3912.86	0.00819564
3922.5	0.00832372
3932.14	0.00938235
3941.79	0.00689871
3951.43	0.00787522
3961.07	0.00898056
3970.71	0.00940863
3980.36	0.00936239
3990	0.00809925
3999.64	0.00930742
