Measurement: Infrared, Infrared Data Processed
Mineral: Orthoclase
Rruff sample: R070001
Ideal chemistry: KAlSi_3_O_8_
Locality: Lengenbach Quarry, Binnental, Valais, Switzerland
Source: Michael Scott
Description: Colorless single crystal with a habit similar to adularia
Measured chemistry: (K_0.92_Na_0.07_Ba_0.01_)_Σ=1_Al_1.01_Si_2.99_O_8_; darker core :  (K_0.91_Na_0.07_Ba_0.02_)_Σ=1_Al_1.02_Si_2.98_O_8_ ; lighter rim
x	intensity
374.123	0.172181
383.765	0.164067
393.407	0.160725
403.05	0.163025
412.692	0.175016
422.334	0.170514
431.976	0.144543
441.619	0.10682
451.261	0.0718906
460.904	0.0554117
470.546	0.0442449
480.188	0.0341939
489.83	0.0290113
499.473	0.0292435
509.115	0.0352173
518.758	0.0407508
528.4	0.0556561
538.042	0.0928289
547.684	0.0948131
557.327	0.088021
566.969	0.109492
576.611	0.125865
586.254	0.123
595.896	0.101453
605.538	0.078606
615.181	0.0587425
624.823	0.0481896
634.466	0.0565184
644.108	0.0597101
653.75	0.037897
663.393	0.0318018
673.035	0.030903
682.677	0.0328871
692.319	0.0387961
701.962	0.0526897
711.604	0.063979
721.246	0.0698719
730.889	0.067185
740.531	0.0594712
750.173	0.0564961
759.816	0.0547175
769.458	0.0560372
779.101	0.0517571
788.743	0.0442662
798.385	0.0340161
808.028	0.0241665
817.67	0.0210327
827.312	0.0216426
836.955	0.0233386
846.597	0.0258785
856.239	0.0295339
865.881	0.0338783
875.524	0.0401772
885.166	0.0471943
894.808	0.0536422
904.451	0.063633
914.093	0.0761794
923.736	0.0928093
933.378	0.113831
943.02	0.140292
952.663	0.172714
962.305	0.208882
971.947	0.240721
981.59	0.2622
991.232	0.273548
1000.87	0.275555
1010.52	0.269252
1020.16	0.256052
1029.8	0.244243
1039.44	0.228575
1049.09	0.207288
1058.73	0.174834
1068.37	0.141929
1078.01	0.131789
1087.65	0.129412
1097.3	0.129746
1106.94	0.130594
1116.58	0.130332
1126.22	0.129355
1135.87	0.119554
1145.51	0.101169
1155.15	0.0814362
1164.79	0.0636074
1174.44	0.0480373
1184.08	0.0361362
1193.72	0.0272452
1203.36	0.0213643
1213.01	0.0182764
1222.65	0.0175165
1232.29	0.0168064
1241.93	0.0161051
1251.58	0.0147991
1261.22	0.0135695
1270.86	0.0127113
1280.5	0.0121642
1290.14	0.0118862
1299.79	0.0118051
1309.43	0.0119365
1319.07	0.0117416
1328.71	0.0114446
1338.36	0.0115118
1348	0.0112948
1357.64	0.0117294
1367.28	0.0124763
1376.92	0.0136598
1386.57	0.0141244
1396.21	0.0148204
1405.85	0.0152628
1415.49	0.0154432
1425.14	0.0148189
1434.78	0.0156279
1444.42	0.0163418
1454.06	0.0172096
1463.71	0.016722
1473.35	0.0152409
1482.99	0.0138169
1492.63	0.015852
1502.28	0.0194096
1511.92	0.023669
1521.56	0.025871
1531.2	0.0276643
1540.85	0.029424
1550.49	0.0267532
1560.13	0.0219247
1569.77	0.0185273
1579.41	0.0174451
1589.06	0.0167357
1598.7	0.0173831
1608.34	0.0195675
1617.98	0.0234164
1627.63	0.0291208
1637.27	0.0351584
1646.91	0.0393529
1656.55	0.0354476
1666.19	0.0273912
1675.84	0.021972
1685.48	0.0167623
1695.12	0.011579
1704.77	0.00719067
1714.41	0.00511998
1724.05	0.0049162
1733.69	0.00501523
1743.33	0.0032286
1752.98	0.00170286
1762.62	0.000990348
1772.26	0.00120602
1781.9	0.00095093
1791.55	0.00081746
1801.19	0.000604343
1810.83	0.000334832
1820.47	-9.72166e-05
1830.12	-0.000325375
1839.76	-0.000267131
1849.4	-0.000366348
1859.04	-0.000845143
1868.68	-0.000852975
1878.33	-0.00161371
1887.97	-0.00144932
1897.61	-0.00158464
1907.25	-0.00222276
1916.9	-0.00143316
1926.54	-0.00232179
1936.18	-0.00283741
1945.82	-0.00342721
1955.46	-0.00445049
1965.11	-0.00463667
1974.75	-0.00463199
1984.39	-0.00262518
1994.04	-0.0031489
2003.68	-0.00428157
2013.32	-0.00457768
2022.96	-0.00418073
2032.6	-0.00312488
2042.25	-0.0031114
2051.89	-0.00147328
2061.53	-0.00261468
2071.17	-0.00230887
2080.82	-0.00236865
2090.46	-0.00292331
2100.1	-0.00248872
2109.74	-0.00127107
2119.39	-0.00200771
2129.03	-0.00234675
2138.67	-0.00340478
2148.31	-0.00358539
2157.95	-0.00246903
2167.6	0.000117772
2177.24	-0.00131265
2186.88	-0.000858583
2196.52	0.000111581
2206.17	0.000327569
2215.81	-0.00148758
2225.45	-8.14134e-05
2235.09	0.000706287
2244.74	0.000849451
2254.38	-0.000236571
2264.02	0.000602319
2273.66	0.000900427
2283.3	0.00180147
2292.95	0.00178115
2302.59	0.00146729
2312.23	0.00102772
2321.87	0.00278693
2331.52	0.00106597
2341.16	0.00110132
2350.8	0.000717554
2360.44	0.00122402
2370.09	0.000908385
2379.73	0.00087641
2389.37	0.00136899
2399.01	0.00157821
2408.66	0.00187783
2418.3	0.00202973
2427.94	0.00151711
2437.58	0.00181817
2447.22	0.00245907
2456.87	0.00192859
2466.51	0.00198258
2476.15	0.00249995
2485.79	0.00242233
2495.44	0.0023323
2505.08	0.00226903
2514.72	0.00243693
2524.36	0.00295723
2534.01	0.00275952
2543.65	0.0033518
2553.29	0.0033512
2562.93	0.00343542
2572.57	0.0035744
2582.22	0.00412172
2591.86	0.00418162
2601.5	0.0046186
2611.14	0.00453517
2620.79	0.00472902
2630.43	0.0047545
2640.07	0.00536574
2649.71	0.00531649
2659.36	0.00507167
2669	0.00469758
2678.64	0.00473402
2688.28	0.00476838
2697.93	0.00486264
2707.57	0.0052026
2717.21	0.00553385
2726.85	0.00527035
2736.49	0.00569767
2746.14	0.00594356
2755.78	0.00571814
2765.42	0.00683098
2775.06	0.00648033
2784.71	0.00655811
2794.35	0.00727189
2803.99	0.00774875
2813.63	0.00812012
2823.28	0.00865354
2832.92	0.00997633
2842.56	0.0124432
2852.2	0.017333
2861.84	0.0141519
2871.49	0.0137018
2881.13	0.0140292
2890.77	0.0138498
2900.41	0.0164518
2910.06	0.0202269
2919.7	0.0267184
2929.34	0.0223579
2938.98	0.01788
2948.62	0.0172074
2958.27	0.0168173
2967.91	0.0148387
2977.55	0.0129471
2987.2	0.0108945
2996.84	0.00933984
3006.48	0.00942871
3016.12	0.00967612
3025.76	0.0113526
3035.41	0.0113611
3045.05	0.0117071
3054.69	0.0124227
3064.33	0.0125211
3073.98	0.0131386
3083.62	0.0129439
3093.26	0.0125784
3102.9	0.013397
3112.55	0.0131635
3122.19	0.0135142
3131.83	0.0138819
3141.47	0.0147845
3151.11	0.0154139
3160.76	0.0169405
3170.4	0.0171025
3180.04	0.0178906
3189.68	0.018853
3199.33	0.0201219
3208.97	0.0204024
3218.61	0.0218608
3228.25	0.0225668
3237.9	0.0235498
3247.54	0.0256831
3257.18	0.0261842
3266.82	0.0282081
3276.47	0.0293528
3286.11	0.0299895
3295.75	0.0292351
3305.39	0.028723
3315.03	0.0277986
3324.68	0.0260054
3334.32	0.0257151
3343.96	0.024597
3353.6	0.0234322
3363.25	0.0217297
3372.89	0.0215376
3382.53	0.0198745
3392.17	0.0187546
3401.82	0.0183285
3411.46	0.0176302
3421.1	0.0165149
3430.74	0.0159495
3440.39	0.0148668
3450.03	0.0132335
3459.67	0.0128959
3469.31	0.0121874
3478.95	0.0118009
3488.6	0.00975636
3498.24	0.00864192
3507.88	0.00905526
3517.52	0.00846124
3527.17	0.00762635
3536.81	0.00623211
3546.45	0.00603261
3556.09	0.00558541
3565.74	0.00483749
3575.38	0.00356734
3585.02	0.00312854
3594.66	0.0030379
3604.3	0.00230211
3613.95	0.00201654
3623.59	0.00138384
3633.23	0.000576624
3642.87	0.00149815
3652.52	0.00127466
3662.16	-0.000153196
3671.8	0.00114407
3681.44	-0.000158595
3691.09	0.000920912
3700.73	-0.000576061
3710.37	0.000352904
3720.01	-0.000616479
3729.66	-0.000145611
3739.3	-0.000190108
3748.94	0.00127631
3758.58	0.00143709
3768.22	0.000829391
3777.87	0.000117776
3787.51	0.000465856
3797.15	-3.4406e-05
3806.79	0.000661385
3816.44	0.000377194
3826.08	-0.000743257
3835.72	0.00190709
3845.36	-0.00058431
3855.01	0.000604239
3864.65	5.0217e-05
3874.29	0.000404765
3883.93	-0.000215885
3893.57	-0.000431335
3903.22	3.28438e-05
3912.86	-0.000950877
3922.5	1.40084e-05
3932.14	0.000118282
3941.79	-0.000442715
3951.43	-0.000744661
3961.07	-0.00100395
3970.71	-0.000124494
3980.36	0.000316445
3990	-1.86765e-05
3999.64	-0.000395639
