Measurement: Infrared, Infrared Data Processed
Mineral: Otavite
Rruff sample: R050677
Ideal chemistry: Cd^2+^CO_3_
Locality: Tsumeb mine, Tsumeb, Otavi District, Oshikoto, Namibia
Source: University of Arizona Mineral Museum
Description: White rhombohedra
Measured chemistry: (Cd_0.91_Zn_0.05_Pb_0.04_)_Σ=1_CO_3_ ; = lighter phase. The crystal is zoned. The darker phase is (Cd_0.93_Zn_0.05_Pb_0.02_)_Σ=1_CO_3_ ; the inclusion is cerussite: Pb_1.00_CO_3_
x	intensity
399.193	0.0273314
408.835	0.0760977
418.477	0.0477744
428.12	0.0375191
437.762	0.0475875
447.404	0.0302821
457.047	0.0239201
466.689	0.0219107
476.331	0.0228338
485.974	0.0189961
495.616	0.0141033
505.258	0.0154259
514.901	0.0143302
524.543	0.0163472
534.185	0.016094
543.828	0.0172965
553.47	0.0179968
563.112	0.0177038
572.755	0.0173652
582.397	0.0181724
592.039	0.0162902
601.682	0.0167834
611.324	0.0193627
620.966	0.0218411
630.609	0.0195068
640.251	0.0211981
649.893	0.0226163
659.536	0.0247099
669.178	0.0250381
678.82	0.0293972
688.463	0.0316735
698.105	0.0386365
707.747	0.0478613
717.39	0.0922752
727.032	0.0816941
736.674	0.0419116
746.317	0.0467067
755.959	0.0567417
765.601	0.0731416
775.244	0.0973283
784.886	0.122397
794.528	0.115994
804.171	0.123842
813.813	0.122709
823.455	0.121508
833.098	0.11926
842.74	0.107865
852.382	0.236239
862.025	0.26968
871.667	0.0412171
881.309	0.0270047
890.952	0.0262089
900.594	0.0260212
910.236	0.0267902
919.879	0.0288237
929.521	0.0294701
939.163	0.0321206
948.806	0.0381408
958.448	0.04219
968.09	0.04202
977.733	0.0454543
987.375	0.0485855
997.017	0.0497282
1006.66	0.0524669
1016.3	0.0519749
1025.94	0.0511053
1035.59	0.0512885
1045.23	0.0519492
1054.87	0.0525607
1064.51	0.0544679
1074.16	0.0577609
1083.8	0.0608934
1093.44	0.0563095
1103.08	0.0598704
1112.72	0.0629207
1122.37	0.0665171
1132.01	0.0709139
1141.65	0.0764832
1151.3	0.080997
1160.94	0.0843785
1170.58	0.0894138
1180.22	0.0961313
1189.86	0.102751
1199.51	0.109464
1209.15	0.118542
1218.79	0.130249
1228.43	0.144404
1238.08	0.161588
1247.72	0.183016
1257.36	0.207138
1267	0.233137
1276.64	0.264012
1286.29	0.291553
1295.93	0.326516
1305.57	0.37381
1315.21	0.430038
1324.86	0.492725
1334.5	0.562105
1344.14	0.639978
1353.78	0.719552
1363.43	0.783099
1373.07	0.816327
1382.71	0.814887
1392.35	0.754085
1401.99	0.685102
1411.64	0.617041
1421.28	0.555035
1430.92	0.494198
1440.57	0.436331
1450.21	0.381113
1459.85	0.330302
1469.49	0.284566
1479.13	0.241267
1488.78	0.200727
1498.42	0.16263
1508.06	0.128432
1517.7	0.0987406
1527.35	0.0714267
1536.99	0.0521206
1546.63	0.0397801
1556.27	0.0312533
1565.91	0.0265411
1575.56	0.0237678
1585.2	0.0199232
1594.84	0.016517
1604.48	0.0142393
1614.13	0.0126272
1623.77	0.0102962
1633.41	0.00934025
1643.05	0.00915249
1652.7	0.00795201
1662.34	0.00776392
1671.98	0.00747064
1681.62	0.00722363
1691.27	0.00705302
1700.91	0.00663184
1710.55	0.00603395
1720.19	0.00620088
1729.84	0.00764135
1739.48	0.00629004
1749.12	0.00615598
1758.76	0.00638334
1768.4	0.00757274
1778.05	0.00868275
1787.69	0.0148173
1797.33	0.0219061
1806.97	0.0140965
1816.62	0.00632314
1826.26	0.00484466
1835.9	0.00543994
1845.54	0.00493095
1855.18	0.00525859
1864.83	0.00402654
1874.47	0.0054498
1884.11	0.00742068
1893.75	0.00636213
1903.4	0.00541677
1913.04	0.00375896
1922.68	0.00552808
1932.32	0.00364302
1941.97	0.00557977
1951.61	0.003528
1961.25	0.00332053
1970.89	-0.00117009
1980.54	0.00761512
1990.18	0.00841195
1999.82	-0.000489142
2009.46	0.00477255
2019.11	0.00491089
2028.75	0.00384681
2038.39	0.00744727
2048.03	0.00458451
2057.67	0.0077245
2067.32	0.00924473
2076.96	0.00816612
2086.6	0.00724393
2096.24	0.00943191
2105.89	0.00800346
2115.53	0.00770726
2125.17	0.0067676
2134.81	0.0079122
2144.45	0.0101699
2154.1	0.00262653
2163.74	0.00736409
2173.38	0.00696066
2183.02	0.0124166
2192.67	0.0117179
2202.31	0.00848432
2211.95	0.0101295
2221.59	0.00952114
2231.24	0.0106536
2240.88	0.00977147
2250.52	0.0120198
2260.16	0.0142436
2269.8	0.0140793
2279.45	0.0153287
2289.09	0.0161031
2298.73	0.0155522
2308.38	0.0145545
2318.02	0.0166481
2327.66	0.0160027
2337.3	0.0141957
2346.94	0.0161093
2356.59	0.0151312
2366.23	0.0141243
2375.87	0.013468
2385.51	0.0136964
2395.16	0.0145466
2404.8	0.0137343
2414.44	0.0139523
2424.08	0.0168212
2433.72	0.0184227
2443.37	0.0176547
2453.01	0.0196664
2462.65	0.0244976
2472.29	0.0300971
2481.94	0.0276041
2491.58	0.0248249
2501.22	0.0217719
2510.86	0.0208094
2520.51	0.0201639
2530.15	0.0180205
2539.79	0.017194
2549.43	0.0173838
2559.07	0.0176328
2568.72	0.0158232
2578.36	0.0164822
2588	0.0170188
2597.64	0.0150269
2607.29	0.015122
2616.93	0.014906
2626.57	0.015899
2636.21	0.0170754
2645.86	0.0170423
2655.5	0.0167867
2665.14	0.0165992
2674.78	0.0158508
2684.43	0.015874
2694.07	0.0164487
2703.71	0.0179672
2713.35	0.01782
2722.99	0.018591
2732.64	0.0182334
2742.28	0.017766
2751.92	0.0200821
2761.56	0.0192361
2771.21	0.0211013
2780.85	0.022112
2790.49	0.0219725
2800.13	0.0241501
2809.78	0.0238861
2819.42	0.0246302
2829.06	0.0228265
2838.7	0.024702
2848.34	0.0238003
2857.99	0.0240797
2867.63	0.0232121
2877.27	0.0264127
2886.91	0.0252997
2896.56	0.025386
2906.2	0.0260539
2915.84	0.0270172
2925.48	0.0299142
2935.13	0.028023
2944.77	0.0273569
2954.41	0.0257556
2964.05	0.0273581
2973.7	0.0268244
2983.34	0.0286773
2992.98	0.028625
3002.62	0.0284865
3012.26	0.0282151
3021.91	0.0282719
3031.55	0.0288199
3041.19	0.0313365
3050.83	0.0319583
3060.48	0.0313231
3070.12	0.032566
3079.76	0.0344926
3089.4	0.0318617
3099.05	0.0339568
3108.69	0.0331513
3118.33	0.0367629
3127.97	0.0356513
3137.61	0.0360333
3147.26	0.0357959
3156.9	0.0355737
3166.54	0.0374932
3176.18	0.0361277
3185.83	0.0415327
3195.47	0.0420093
3205.11	0.0387548
3214.75	0.0385784
3224.4	0.0392653
3234.04	0.0383885
3243.68	0.0405483
3253.32	0.0403986
3262.97	0.0394345
3272.61	0.0408743
3282.25	0.0430888
3291.89	0.0413843
3301.53	0.0393632
3311.18	0.042189
3320.82	0.0419739
3330.46	0.0425861
3340.1	0.0420093
3349.75	0.0437022
3359.39	0.0433371
3369.03	0.04402
3378.67	0.0396845
3388.32	0.0404174
3397.96	0.0436837
3407.6	0.0413814
3417.24	0.0402465
3426.89	0.0420353
3436.53	0.0408238
3446.17	0.0421226
3455.81	0.0440917
3465.45	0.0421545
3475.1	0.041458
3484.74	0.0370139
3494.38	0.0405786
3504.02	0.0401766
3513.67	0.0378757
3523.31	0.0395343
3532.95	0.0407896
3542.59	0.03564
3552.24	0.0382246
3561.88	0.0366556
3571.52	0.0388448
3581.16	0.0314509
3590.8	0.0354428
3600.45	0.0351466
3610.09	0.0353634
3619.73	0.0412368
3629.37	0.0346601
3639.02	0.0336971
3648.66	0.030229
3658.3	0.0320907
3667.94	0.0283629
3677.59	0.0329085
3687.23	0.0324084
3696.87	0.0352721
3706.51	0.0351878
3716.16	0.033657
3725.8	0.0361892
3735.44	0.0357448
3745.08	0.0392114
3754.72	0.0340241
3764.37	0.0336369
3774.01	0.0329886
3783.65	0.0343191
3793.29	0.0388558
3802.94	0.0378056
3812.58	0.0345926
3822.22	0.0354711
3831.86	0.0331382
3841.51	0.0342211
3851.15	0.036193
3860.79	0.0319826
3870.43	0.0374507
3880.07	0.040283
3889.72	0.0400429
3899.36	0.0322663
3909	0.0361335
3918.64	0.0391152
3928.29	0.0338943
3937.93	0.0378764
3947.57	0.0352944
3957.21	0.0321281
3966.86	0.0369085
3976.5	0.0365311
3986.14	0.0348864
3995.78	0.0409254
