Measurement: Infrared, Infrared Data Processed
Mineral: Paramontroseite
Rruff sample: R050391
Ideal chemistry: V^4+^O_2_
Locality: J.J. mine, Buell Canyon District, Montrose County, Colorado, USA
Source: University of Arizona Mineral Museum
Description: Black massive, radioactive
Measured chemistry: gray phase: (V^4+^_0.82_Fe^3+^_0.09_U^6+^_0.04_V^5+^_0.03_Al_0.02_)_Î£=1_O_2_; lightest phase is uranophane
x	intensity
399.193	0.285714
408.835	0.307826
418.477	0.306351
428.12	0.318676
437.762	0.317016
447.404	0.318981
457.047	0.330527
466.689	0.333361
476.331	0.336832
485.974	0.337133
495.616	0.341932
505.258	0.338259
514.901	0.332469
524.543	0.324123
534.185	0.315206
543.828	0.302473
553.47	0.297044
563.112	0.289996
572.755	0.285991
582.397	0.281317
592.039	0.278294
601.682	0.272989
611.324	0.266702
620.966	0.257617
630.609	0.25304
640.251	0.247341
649.893	0.242111
659.536	0.239803
669.178	0.238105
678.82	0.237609
688.463	0.236521
698.105	0.236091
707.747	0.234235
717.39	0.234344
727.032	0.233818
736.674	0.233006
746.317	0.229226
755.959	0.225627
765.601	0.217996
775.244	0.210692
784.886	0.202617
794.528	0.195231
804.171	0.188795
813.813	0.184008
823.455	0.180009
833.098	0.177708
842.74	0.175429
852.382	0.174256
862.025	0.171787
871.667	0.168898
881.309	0.164489
890.952	0.160184
900.594	0.156448
910.236	0.150129
919.879	0.14418
929.521	0.135245
939.163	0.125549
948.806	0.118471
958.448	0.118985
968.09	0.130016
977.733	0.144028
987.375	0.159347
997.017	0.171952
1006.66	0.172036
1016.3	0.141445
1025.94	0.0831091
1035.59	0.0705651
1045.23	0.0767833
1054.87	0.0828623
1064.51	0.0886903
1074.16	0.0935021
1083.8	0.0984408
1093.44	0.102738
1103.08	0.106523
1112.72	0.109354
1122.37	0.110168
1132.01	0.110394
1141.65	0.110555
1151.3	0.112574
1160.94	0.113898
1170.58	0.116077
1180.22	0.117884
1189.86	0.120135
1199.51	0.121685
1209.15	0.122597
1218.79	0.123633
1228.43	0.124756
1238.08	0.125873
1247.72	0.126992
1257.36	0.128831
1267	0.130616
1276.64	0.132922
1286.29	0.133659
1295.93	0.133564
1305.57	0.133335
1315.21	0.134403
1324.86	0.135464
1334.5	0.137822
1344.14	0.140071
1353.78	0.142147
1363.43	0.144627
1373.07	0.146827
1382.71	0.149095
1392.35	0.151043
1401.99	0.154284
1411.64	0.156141
1421.28	0.157117
1430.92	0.159157
1440.57	0.159329
1450.21	0.158032
1459.85	0.15661
1469.49	0.154851
1479.13	0.155487
1488.78	0.158159
1498.42	0.161085
1508.06	0.164471
1517.7	0.169143
1527.35	0.173685
1536.99	0.179089
1546.63	0.184085
1556.27	0.189926
1565.91	0.195926
1575.56	0.202263
1585.2	0.207628
1594.84	0.215253
1604.48	0.221149
1614.13	0.222458
1623.77	0.217614
1633.41	0.208438
1643.05	0.200505
1652.7	0.194428
1662.34	0.191096
1671.98	0.189283
1681.62	0.18872
1691.27	0.19076
1700.91	0.192625
1710.55	0.193436
1720.19	0.19123
1729.84	0.185801
1739.48	0.178963
1749.12	0.17431
1758.76	0.172341
1768.4	0.171389
1778.05	0.169581
1787.69	0.167027
1797.33	0.165426
1806.97	0.1675
1816.62	0.167143
1826.26	0.169187
1835.9	0.169978
1845.54	0.17277
1855.18	0.174167
1864.83	0.17528
1874.47	0.177371
1884.11	0.179884
1893.75	0.181251
1903.4	0.184051
1913.04	0.184686
1922.68	0.187535
1932.32	0.185952
1941.97	0.188554
1951.61	0.187668
1961.25	0.189775
1970.89	0.188645
1980.54	0.192686
1990.18	0.192523
1999.82	0.193869
2009.46	0.190541
2019.11	0.192145
2028.75	0.195756
2038.39	0.199901
2048.03	0.203541
2057.67	0.209782
2067.32	0.207608
2076.96	0.210767
2086.6	0.212275
2096.24	0.211393
2105.89	0.214854
2115.53	0.216962
2125.17	0.216647
2134.81	0.2172
2144.45	0.217427
2154.1	0.214669
2163.74	0.221856
2173.38	0.220193
2183.02	0.221137
2192.67	0.22896
2202.31	0.227493
2211.95	0.229896
2221.59	0.229518
2231.24	0.231743
2240.88	0.234912
2250.52	0.23429
2260.16	0.240971
2269.8	0.240936
2279.45	0.242255
2289.09	0.244156
2298.73	0.247019
2308.38	0.248594
2318.02	0.251495
2327.66	0.253607
2337.3	0.253454
2346.94	0.253798
2356.59	0.25737
2366.23	0.258466
2375.87	0.258507
2385.51	0.259458
2395.16	0.261357
2404.8	0.264261
2414.44	0.264323
2424.08	0.26685
2433.72	0.269501
2443.37	0.270097
2453.01	0.272161
2462.65	0.271344
2472.29	0.276143
2481.94	0.275588
2491.58	0.277685
2501.22	0.28074
2510.86	0.282902
2520.51	0.283407
2530.15	0.286678
2539.79	0.285896
2549.43	0.286524
2559.07	0.289977
2568.72	0.289749
2578.36	0.293045
2588	0.295668
2597.64	0.296158
2607.29	0.298065
2616.93	0.301882
2626.57	0.30351
2636.21	0.305444
2645.86	0.306826
2655.5	0.30841
2665.14	0.309499
2674.78	0.312031
2684.43	0.314196
2694.07	0.315075
2703.71	0.319447
2713.35	0.320149
2722.99	0.322937
2732.64	0.325107
2742.28	0.327375
2751.92	0.32927
2761.56	0.331816
2771.21	0.335264
2780.85	0.337894
2790.49	0.339204
2800.13	0.341843
2809.78	0.344246
2819.42	0.346572
2829.06	0.35055
2838.7	0.352335
2848.34	0.352787
2857.99	0.354011
2867.63	0.356801
2877.27	0.360063
2886.91	0.364516
2896.56	0.364883
2906.2	0.367739
2915.84	0.3673
2925.48	0.368215
2935.13	0.367031
2944.77	0.372143
2954.41	0.3763
2964.05	0.375346
2973.7	0.37654
2983.34	0.377416
2992.98	0.378224
3002.62	0.378934
3012.26	0.382553
3021.91	0.382838
3031.55	0.385176
3041.19	0.387518
3050.83	0.388869
3060.48	0.39093
3070.12	0.392648
3079.76	0.392867
3089.4	0.396075
3099.05	0.395158
3108.69	0.397049
3118.33	0.402061
3127.97	0.400879
3137.61	0.403209
3147.26	0.404115
3156.9	0.40596
3166.54	0.408087
3176.18	0.407911
3185.83	0.411363
3195.47	0.407259
3205.11	0.411377
3214.75	0.410529
3224.4	0.412168
3234.04	0.412988
3243.68	0.417198
3253.32	0.414224
3262.97	0.418351
3272.61	0.415852
3282.25	0.420124
3291.89	0.420847
3301.53	0.418522
3311.18	0.420565
3320.82	0.424144
3330.46	0.423929
3340.1	0.425559
3349.75	0.420302
3359.39	0.422736
3369.03	0.423242
3378.67	0.425824
3388.32	0.424645
3397.96	0.424019
3407.6	0.42176
3417.24	0.423669
3426.89	0.427001
3436.53	0.422831
3446.17	0.42237
3455.81	0.421923
3465.45	0.422144
3475.1	0.422801
3484.74	0.420259
3494.38	0.418235
3504.02	0.417941
3513.67	0.414263
3523.31	0.412746
3532.95	0.414448
3542.59	0.416967
3552.24	0.413682
3561.88	0.407702
3571.52	0.409763
3581.16	0.398765
3590.8	0.39881
3600.45	0.395741
3610.09	0.386125
3619.73	0.378855
3629.37	0.37072
3639.02	0.360369
3648.66	0.353436
3658.3	0.359666
3667.94	0.362405
3677.59	0.359664
3687.23	0.363045
3696.87	0.370445
3706.51	0.370638
3716.16	0.371961
3725.8	0.375998
3735.44	0.376452
3745.08	0.377597
3754.72	0.392557
3764.37	0.388685
3774.01	0.389069
3783.65	0.391617
3793.29	0.391549
3802.94	0.393575
3812.58	0.394164
3822.22	0.403123
3831.86	0.398974
3841.51	0.402114
3851.15	0.405732
3860.79	0.406637
3870.43	0.409131
3880.07	0.405892
3889.72	0.411004
3899.36	0.416302
3909	0.41935
3918.64	0.423465
3928.29	0.416301
3937.93	0.417849
3947.57	0.419896
3957.21	0.421697
3966.86	0.426835
3976.5	0.426133
3986.14	0.429273
3995.78	0.423469
