Measurement: Infrared, Infrared Data Processed
Mineral: Parahopeite
Rruff sample: R050463
Ideal chemistry: Zn^2+^_3_(P^5+^O_4_)_2_4H_2_O
Locality: Broken Hill mine, Kabwe, Zambia
Source: University of Arizona Mineral Museum
Description: Colorless elongated subparallel aggregate of crystals
Measured chemistry: Zn_3.00_(P_1.00_O_4_)_2_Â·4H_2_O
x	intensity
50.1401	0.0128248
52.0686	0.0150323
53.9971	0.0133625
55.9255	0.0085042
57.854	0.00865162
59.7825	0.0136103
61.7109	0.0102673
63.6394	0.00829872
65.5679	0.010226
67.4963	0.00841939
69.4248	0.00908258
71.3533	0.009873
73.2817	0.00934971
75.2102	0.00977188
77.1387	0.0118955
79.0671	0.0129875
80.9956	0.0150754
82.9241	0.0169393
84.8525	0.01597
86.781	0.0138925
88.7095	0.0141111
90.6379	0.0150435
92.5664	0.01578
94.4948	0.0163225
96.4233	0.0175088
98.3518	0.0180388
100.28	0.0194031
102.209	0.0209637
104.137	0.0195894
106.066	0.0174184
107.994	0.0170194
109.923	0.0175638
111.851	0.0185727
113.779	0.0195557
115.708	0.0210368
117.636	0.0221874
119.565	0.0233298
121.493	0.0242159
123.422	0.0256193
125.35	0.0271073
127.279	0.0281072
129.207	0.0290962
131.136	0.0303749
133.064	0.0317896
134.993	0.0334007
136.921	0.0343775
138.85	0.0338755
140.778	0.03203
142.707	0.0301274
144.635	0.0288048
146.563	0.0289245
148.492	0.0302593
150.42	0.031631
152.349	0.0325568
154.277	0.0339072
156.206	0.0357917
158.134	0.0372314
160.063	0.0372847
161.991	0.0368137
163.92	0.0370762
165.848	0.0384216
167.777	0.0397297
169.705	0.0406302
171.633	0.0405915
173.562	0.0400368
175.49	0.0400528
177.419	0.0409353
179.347	0.0416345
181.276	0.0418584
183.204	0.041584
185.133	0.0409524
187.061	0.0397255
188.99	0.0381903
190.918	0.0363384
192.847	0.0350722
194.775	0.0341847
196.704	0.0337778
198.632	0.0335306
200.56	0.0339994
202.489	0.0351601
204.417	0.035887
206.346	0.0351766
208.274	0.0338516
210.203	0.0325477
212.131	0.0315108
214.06	0.0307574
215.988	0.0308081
217.917	0.0311295
219.845	0.0320068
221.774	0.0331234
223.702	0.03416
225.631	0.0351489
227.559	0.035809
229.488	0.0356085
231.416	0.0353501
233.344	0.034755
235.273	0.0341202
237.201	0.0339716
239.13	0.034213
241.058	0.035103
242.987	0.036482
244.915	0.0378166
246.844	0.0396336
248.772	0.0419922
250.701	0.0444204
252.629	0.046482
254.558	0.0478885
256.486	0.048773
258.414	0.0491365
260.343	0.0483447
262.271	0.0472395
264.2	0.0458959
266.128	0.0441569
268.057	0.0421808
269.985	0.0398302
271.914	0.0377721
273.842	0.0366038
275.771	0.0359579
277.699	0.035889
279.628	0.0367068
281.556	0.0376149
283.485	0.0387835
285.413	0.0404163
287.341	0.0421437
289.27	0.0441837
291.198	0.0463325
293.127	0.0479986
295.055	0.0491268
296.984	0.0498996
298.912	0.0500905
300.841	0.0493364
302.769	0.0482063
304.698	0.0476191
306.626	0.0468222
308.555	0.0456768
310.483	0.0445353
312.411	0.0438253
314.34	0.0431888
316.269	0.0424754
318.197	0.041775
320.125	0.040907
322.054	0.0398814
323.982	0.0387627
325.911	0.0373576
327.839	0.036276
329.768	0.0356132
331.696	0.0353555
333.625	0.0353699
335.553	0.0358477
337.482	0.0364793
339.41	0.0375608
341.339	0.039099
343.267	0.0406528
345.195	0.0420611
347.124	0.0433756
349.052	0.0441173
350.981	0.0440956
352.909	0.0432188
354.838	0.0413429
356.766	0.0388452
358.695	0.0364019
360.623	0.0340426
362.552	0.0319156
364.48	0.0303172
366.409	0.0287764
368.337	0.0273685
370.265	0.0267018
372.194	0.0264262
374.122	0.0261422
376.051	0.0256795
377.979	0.0251083
379.908	0.0245809
381.836	0.0244732
383.765	0.0245826
385.693	0.0245285
387.622	0.0246681
389.55	0.0249044
391.479	0.0249081
393.407	0.0253838
395.336	0.025932
397.264	0.0263718
399.192	0.0268612
401.121	0.0275157
403.049	0.0281244
404.978	0.028728
406.906	0.0291629
408.835	0.0296105
410.763	0.0304098
412.692	0.031642
414.62	0.0330199
416.549	0.0346839
418.477	0.036833
420.406	0.0392419
422.334	0.0411062
424.262	0.0420735
426.191	0.041859
428.12	0.0408933
430.048	0.039387
431.976	0.0379456
433.905	0.0369075
435.833	0.0361259
437.762	0.035343
439.69	0.0347532
441.619	0.0344
443.547	0.0342749
445.476	0.0341675
447.404	0.0345713
449.333	0.0350487
451.261	0.0353822
453.19	0.0361475
455.118	0.0369005
457.046	0.0373391
458.975	0.038025
460.903	0.0389096
462.832	0.0397117
464.76	0.0402822
466.689	0.0412087
468.617	0.0422676
470.546	0.0434532
472.474	0.0442659
474.403	0.0449591
476.331	0.0458875
478.26	0.0468833
480.188	0.048134
482.116	0.0491928
484.045	0.050208
485.974	0.0511139
487.902	0.0521753
489.83	0.0535489
491.759	0.054923
493.687	0.0561088
495.616	0.0570565
497.544	0.0582584
499.473	0.059484
501.401	0.0604123
503.33	0.0612833
505.258	0.0621782
507.187	0.0628727
509.115	0.0630886
511.043	0.0627763
512.972	0.062762
514.9	0.0629636
516.829	0.0624825
518.757	0.0617103
520.686	0.0618144
522.614	0.0624859
524.543	0.0633311
526.471	0.0646055
528.4	0.0660505
530.328	0.0677502
532.257	0.070434
534.185	0.0735252
536.114	0.0767968
538.042	0.0803236
539.971	0.0834041
541.899	0.0857485
543.827	0.0865973
545.756	0.0855154
547.684	0.0830038
549.613	0.0794072
551.541	0.0753453
553.47	0.0719344
555.398	0.0701176
557.327	0.06964
559.255	0.0704149
561.184	0.07216
563.112	0.074843
565.041	0.0776189
566.969	0.0798776
568.898	0.0811846
570.826	0.0814119
572.755	0.0802606
574.683	0.0781218
576.611	0.0746601
578.54	0.0706524
580.468	0.0664521
582.397	0.0625493
584.325	0.059008
586.254	0.0571127
588.182	0.0565146
590.111	0.0560942
592.039	0.0563384
593.968	0.05697
595.896	0.0579315
597.824	0.058981
599.753	0.0597141
601.682	0.0606504
603.61	0.0620245
605.538	0.0634892
607.467	0.0645295
609.395	0.064586
611.324	0.0648295
613.252	0.0663091
615.181	0.0669516
617.109	0.0673685
619.038	0.0677039
620.966	0.0684487
622.894	0.0692497
624.823	0.0704858
626.751	0.0721434
628.68	0.0735439
630.608	0.0746616
632.537	0.0757349
634.465	0.076624
636.394	0.0775202
638.322	0.078495
640.251	0.079505
642.179	0.0806348
644.108	0.0815547
646.036	0.0823098
647.965	0.0823512
649.893	0.0813483
651.822	0.080377
653.75	0.0790314
655.678	0.0770757
657.607	0.0747486
659.535	0.0724743
661.464	0.0709845
663.392	0.0702569
665.321	0.0698008
667.249	0.0696496
669.178	0.0698842
671.106	0.070076
673.035	0.0704052
674.963	0.0712845
676.892	0.0720687
678.82	0.0724865
680.749	0.0727155
682.677	0.072954
684.606	0.073709
686.534	0.074692
688.462	0.0748751
690.391	0.075185
692.319	0.075695
694.248	0.0758782
696.176	0.0760041
698.105	0.0765921
700.033	0.0775329
