Measurement: Infrared, Infrared Data Processed
Mineral: Paragonite
Rruff sample: R050447
Ideal chemistry: NaAl_2_(Si_3_Al)O_10_(OH)_2_
Locality: Switzerland
Source: Marcus Origlieri
Description: White massive
Measured chemistry: (Na_0.81_K_0.17_Ca_0.02_)Al_2.00_(Si_2.98_Al_0.02_)O_10_(OH)_2_
x	intensity
399.193	0.188316
408.835	0.196122
418.477	0.191614
428.12	0.200368
437.762	0.213419
447.404	0.222425
457.047	0.241409
466.689	0.256793
476.331	0.259794
485.974	0.246291
495.616	0.213549
505.258	0.192423
514.901	0.20712
524.543	0.221737
534.185	0.238001
543.828	0.218267
553.47	0.171223
563.112	0.129222
572.755	0.0977858
582.397	0.0862725
592.039	0.0793219
601.682	0.0650317
611.324	0.0509348
620.966	0.0429741
630.609	0.0435821
640.251	0.0440222
649.893	0.0424714
659.536	0.0439222
669.178	0.0523343
678.82	0.0669922
688.463	0.0806563
698.105	0.0896602
707.747	0.0975526
717.39	0.115543
727.032	0.125106
736.674	0.124294
746.317	0.132408
755.959	0.124237
765.601	0.103042
775.244	0.0867494
784.886	0.0878903
794.528	0.10486
804.171	0.127626
813.813	0.130728
823.455	0.126899
833.098	0.115187
842.74	0.096458
852.382	0.115947
862.025	0.164997
871.667	0.206776
881.309	0.229133
890.952	0.252116
900.594	0.28234
910.236	0.300856
919.879	0.30275
929.521	0.303637
939.163	0.30072
948.806	0.302559
958.448	0.306061
968.09	0.300613
977.733	0.287974
987.375	0.273414
997.017	0.255187
1006.66	0.232225
1016.3	0.210457
1025.94	0.187299
1035.59	0.159341
1045.23	0.1326
1054.87	0.113761
1064.51	0.0981024
1074.16	0.0835122
1083.8	0.0708229
1093.44	0.0582165
1103.08	0.0463332
1112.72	0.0352999
1122.37	0.0256656
1132.01	0.0187688
1141.65	0.0142579
1151.3	0.0114875
1160.94	0.0095385
1170.58	0.007804
1180.22	0.00686951
1189.86	0.00626856
1199.51	0.00555073
1209.15	0.0046426
1218.79	0.00435216
1228.43	0.00423777
1238.08	0.00394124
1247.72	0.00397839
1257.36	0.00380303
1267	0.00408492
1276.64	0.00358983
1286.29	0.00358126
1295.93	0.00344188
1305.57	0.00397167
1315.21	0.00427922
1324.86	0.00403184
1334.5	0.00431782
1344.14	0.00435817
1353.78	0.00501926
1363.43	0.00520142
1373.07	0.00510975
1382.71	0.00505521
1392.35	0.00570904
1401.99	0.00540166
1411.64	0.00487288
1421.28	0.00530318
1430.92	0.00542835
1440.57	0.00577784
1450.21	0.00574794
1459.85	0.00488686
1469.49	0.00524051
1479.13	0.00464809
1488.78	0.00463353
1498.42	0.00507306
1508.06	0.00543499
1517.7	0.00482684
1527.35	0.00535581
1536.99	0.00578711
1546.63	0.00571704
1556.27	0.00638506
1565.91	0.00660179
1575.56	0.00671961
1585.2	0.00704309
1594.84	0.00692387
1604.48	0.0072427
1614.13	0.00779845
1623.77	0.00823685
1633.41	0.00840016
1643.05	0.009287
1652.7	0.00833229
1662.34	0.0091591
1671.98	0.00907119
1681.62	0.00834398
1691.27	0.008013
1700.91	0.00811304
1710.55	0.00757786
1720.19	0.00889306
1729.84	0.00791117
1739.48	0.00662121
1749.12	0.00547339
1758.76	0.00682214
1768.4	0.00768666
1778.05	0.00692143
1787.69	0.0076116
1797.33	0.00696213
1806.97	0.00727403
1816.62	0.00672401
1826.26	0.00702351
1835.9	0.00669619
1845.54	0.0076054
1855.18	0.00744627
1864.83	0.00761893
1874.47	0.00701244
1884.11	0.00574976
1893.75	0.0065096
1903.4	0.00546501
1913.04	0.00424111
1922.68	0.00334144
1932.32	0.00376064
1941.97	0.00388599
1951.61	-0.000581201
1961.25	-1.07873e-05
1970.89	0.00110755
1980.54	0.00374116
1990.18	-3.9235e-05
1999.82	0.00374085
2009.46	5.26676e-05
2019.11	-0.00143312
2028.75	0.0027315
2038.39	0.000201495
2048.03	0.00463233
2057.67	0.00477957
2067.32	0.00627621
2076.96	0.00658953
2086.6	0.00501776
2096.24	0.00512952
2105.89	0.00707388
2115.53	0.00670032
2125.17	0.00644072
2134.81	0.00259004
2144.45	0.00295893
2154.1	-0.00252822
2163.74	0.00572297
2173.38	0.0100686
2183.02	0.00551399
2192.67	0.00863425
2202.31	0.00699825
2211.95	0.00858329
2221.59	0.0100331
2231.24	0.00963183
2240.88	0.0112686
2250.52	0.00816191
2260.16	0.0110716
2269.8	0.0114559
2279.45	0.0125962
2289.09	0.0124131
2298.73	0.0135406
2308.38	0.0125747
2318.02	0.0119895
2327.66	0.0114427
2337.3	0.0109112
2346.94	0.0112975
2356.59	0.0108036
2366.23	0.0110014
2375.87	0.011184
2385.51	0.0117993
2395.16	0.0122159
2404.8	0.0121463
2414.44	0.0121735
2424.08	0.0130864
2433.72	0.0126103
2443.37	0.0143
2453.01	0.013087
2462.65	0.012864
2472.29	0.0120802
2481.94	0.0141574
2491.58	0.0120703
2501.22	0.0121442
2510.86	0.0114459
2520.51	0.0130253
2530.15	0.0117358
2539.79	0.0130801
2549.43	0.0135756
2559.07	0.0138359
2568.72	0.0126659
2578.36	0.0139417
2588	0.0149659
2597.64	0.0142428
2607.29	0.0142917
2616.93	0.0159577
2626.57	0.0146475
2636.21	0.0138693
2645.86	0.0154985
2655.5	0.0139615
2665.14	0.0147029
2674.78	0.0140669
2684.43	0.0142124
2694.07	0.0142377
2703.71	0.0148326
2713.35	0.0149288
2722.99	0.0145107
2732.64	0.0150936
2742.28	0.0140885
2751.92	0.0143527
2761.56	0.0139458
2771.21	0.0151104
2780.85	0.0153972
2790.49	0.0147992
2800.13	0.0150215
2809.78	0.0151076
2819.42	0.0162471
2829.06	0.0155196
2838.7	0.0163683
2848.34	0.0155536
2857.99	0.015011
2867.63	0.0153777
2877.27	0.0162583
2886.91	0.0157455
2896.56	0.0159527
2906.2	0.016094
2915.84	0.0154454
2925.48	0.0148926
2935.13	0.014821
2944.77	0.0182694
2954.41	0.0165916
2964.05	0.0169919
2973.7	0.0166422
2983.34	0.015995
2992.98	0.0155335
3002.62	0.0170746
3012.26	0.0178665
3021.91	0.019494
3031.55	0.0185789
3041.19	0.0189282
3050.83	0.0184701
3060.48	0.0202939
3070.12	0.0172869
3079.76	0.0183999
3089.4	0.0198125
3099.05	0.0183428
3108.69	0.0200075
3118.33	0.0192421
3127.97	0.0203916
3137.61	0.0215913
3147.26	0.022313
3156.9	0.0211064
3166.54	0.024539
3176.18	0.0238901
3185.83	0.0205946
3195.47	0.0216376
3205.11	0.0223343
3214.75	0.0232671
3224.4	0.0218154
3234.04	0.0212043
3243.68	0.0254992
3253.32	0.0231133
3262.97	0.0221393
3272.61	0.0248874
3282.25	0.0240591
3291.89	0.0227721
3301.53	0.0260537
3311.18	0.0240504
3320.82	0.0235013
3330.46	0.0258182
3340.1	0.0237111
3349.75	0.0241615
3359.39	0.0262924
3369.03	0.0277246
3378.67	0.0264425
3388.32	0.0254561
3397.96	0.0277784
3407.6	0.0241987
3417.24	0.0281834
3426.89	0.0267389
3436.53	0.0304157
3446.17	0.0285525
3455.81	0.0277184
3465.45	0.0275089
3475.1	0.0278842
3484.74	0.0287619
3494.38	0.0274759
3504.02	0.0278581
3513.67	0.0260114
3523.31	0.0284927
3532.95	0.0261929
3542.59	0.0255326
3552.24	0.0300366
3561.88	0.0272312
3571.52	0.0291419
3581.16	0.0336377
3590.8	0.0360573
3600.45	0.0426489
3610.09	0.0630426
3619.73	0.0915898
3629.37	0.0950173
3639.02	0.0863817
3648.66	0.0716345
3658.3	0.0659227
3667.94	0.0503974
3677.59	0.0354884
3687.23	0.0237715
3696.87	0.0174552
3706.51	0.0136099
3716.16	0.0197219
3725.8	0.0152386
3735.44	0.0165725
3745.08	0.0234794
3754.72	0.0196323
3764.37	0.0148172
3774.01	0.0206928
3783.65	0.0172701
3793.29	0.0159312
3802.94	0.0177047
3812.58	0.0137819
3822.22	0.0211261
3831.86	0.0171186
3841.51	0.0174945
3851.15	0.0184266
3860.79	0.0166038
3870.43	0.0180401
3880.07	0.0162274
3889.72	0.0163397
3899.36	0.0161871
3909	0.0194478
3918.64	0.0199379
3928.29	0.0199909
3937.93	0.0180786
3947.57	0.0198878
3957.21	0.0192518
3966.86	0.0173807
3976.5	0.0186854
3986.14	0.0171321
3995.78	0.0190116
