Measurement: Infrared, Infrared Data Processed
Mineral: Paravauxite
Rruff sample: R050314
Ideal chemistry: Fe^2+^Al_2_(PO_4_)_2_(OH)_2_8H_2_O
Locality: Siglo XX mine, Llallagua, Bolivia
Source: Eugene Schlepp
Description: Pale green prismatic crystals
Measured chemistry: (Fe^2+^_0.93_Mg_0.07_)_Σ=1_Al_2.00_(P_1.00_O_4_)_2_(OH)_2_·8H_2_O
x	intensity
399.193	0.19376
408.835	0.202886
418.477	0.201314
428.12	0.207813
437.762	0.216662
447.404	0.211325
457.047	0.197292
466.689	0.175332
476.331	0.163177
485.974	0.167262
495.616	0.18045
505.258	0.200132
514.901	0.208954
524.543	0.209138
534.185	0.203688
543.828	0.198452
553.47	0.193124
563.112	0.200994
572.755	0.200408
582.397	0.195759
592.039	0.185658
601.682	0.175845
611.324	0.169552
620.966	0.168826
630.609	0.174295
640.251	0.181102
649.893	0.180859
659.536	0.165408
669.178	0.153342
678.82	0.144699
688.463	0.134475
698.105	0.124439
707.747	0.115628
717.39	0.109477
727.032	0.103756
736.674	0.0983758
746.317	0.0912727
755.959	0.0837155
765.601	0.0784815
775.244	0.0751302
784.886	0.0733543
794.528	0.0716944
804.171	0.0711126
813.813	0.0702874
823.455	0.069976
833.098	0.0705697
842.74	0.0710162
852.382	0.0722952
862.025	0.0746233
871.667	0.0788328
881.309	0.0839173
890.952	0.0911248
900.594	0.0999612
910.236	0.111774
919.879	0.126304
929.521	0.143375
939.163	0.164564
948.806	0.18945
958.448	0.212138
968.09	0.232706
977.733	0.263024
987.375	0.307461
997.017	0.337549
1006.66	0.340586
1016.3	0.37703
1025.94	0.391185
1035.59	0.362399
1045.23	0.329664
1054.87	0.292505
1064.51	0.254037
1074.16	0.21974
1083.8	0.184349
1093.44	0.151648
1103.08	0.126128
1112.72	0.104887
1122.37	0.0892345
1132.01	0.0781148
1141.65	0.0722807
1151.3	0.0738446
1160.94	0.0646561
1170.58	0.0519541
1180.22	0.0445502
1189.86	0.0394433
1199.51	0.0348604
1209.15	0.0306434
1218.79	0.0268944
1228.43	0.0243018
1238.08	0.0220628
1247.72	0.0204504
1257.36	0.0193627
1267	0.0190067
1276.64	0.0195244
1286.29	0.0189416
1295.93	0.0188392
1305.57	0.0185178
1315.21	0.01869
1324.86	0.0184977
1334.5	0.0188911
1344.14	0.0189524
1353.78	0.0191235
1363.43	0.0192712
1373.07	0.020181
1382.71	0.0199822
1392.35	0.0207504
1401.99	0.0215307
1411.64	0.022426
1421.28	0.0232141
1430.92	0.02385
1440.57	0.0242966
1450.21	0.0245096
1459.85	0.0245967
1469.49	0.0251382
1479.13	0.0257473
1488.78	0.0264358
1498.42	0.0274909
1508.06	0.0286397
1517.7	0.0300883
1527.35	0.0313707
1536.99	0.0335265
1546.63	0.0360736
1556.27	0.0388097
1565.91	0.0420303
1575.56	0.0454023
1585.2	0.0501781
1594.84	0.0557486
1604.48	0.0610241
1614.13	0.0662976
1623.77	0.0689986
1633.41	0.0685942
1643.05	0.067366
1652.7	0.0638516
1662.34	0.0574382
1671.98	0.0504493
1681.62	0.0425265
1691.27	0.0363304
1700.91	0.0308273
1710.55	0.0272181
1720.19	0.024343
1729.84	0.0219649
1739.48	0.0193527
1749.12	0.0188754
1758.76	0.0182367
1768.4	0.0179345
1778.05	0.0180052
1787.69	0.0181174
1797.33	0.0175345
1806.97	0.0177577
1816.62	0.0168756
1826.26	0.0175799
1835.9	0.0180974
1845.54	0.0180882
1855.18	0.0170851
1864.83	0.0170517
1874.47	0.0167223
1884.11	0.0171348
1893.75	0.0166512
1903.4	0.0159013
1913.04	0.0168107
1922.68	0.013972
1932.32	0.0143467
1941.97	0.0166398
1951.61	0.0117749
1961.25	0.0097216
1970.89	0.0129663
1980.54	0.014975
1990.18	0.0119214
1999.82	0.0107065
2009.46	0.0102483
2019.11	0.0108561
2028.75	0.00940001
2038.39	0.0114673
2048.03	0.0131793
2057.67	0.0127391
2067.32	0.0134161
2076.96	0.0150209
2086.6	0.0162022
2096.24	0.0137574
2105.89	0.0155251
2115.53	0.0161814
2125.17	0.0145905
2134.81	0.0109239
2144.45	0.0136889
2154.1	0.00836391
2163.74	0.0130886
2173.38	0.0137208
2183.02	0.0193811
2192.67	0.0164893
2202.31	0.019922
2211.95	0.0194227
2221.59	0.0210289
2231.24	0.0182839
2240.88	0.0225252
2250.52	0.021502
2260.16	0.0252553
2269.8	0.0250271
2279.45	0.0272963
2289.09	0.0279839
2298.73	0.0291355
2308.38	0.0276751
2318.02	0.0305955
2327.66	0.030391
2337.3	0.0306481
2346.94	0.0301938
2356.59	0.0306524
2366.23	0.0310026
2375.87	0.0298427
2385.51	0.0299938
2395.16	0.0299892
2404.8	0.0307869
2414.44	0.0303853
2424.08	0.0309181
2433.72	0.0326192
2443.37	0.0322049
2453.01	0.0328255
2462.65	0.0346592
2472.29	0.033642
2481.94	0.0345854
2491.58	0.0344679
2501.22	0.0364106
2510.86	0.03563
2520.51	0.0372928
2530.15	0.0366328
2539.79	0.0378362
2549.43	0.0393887
2559.07	0.0382547
2568.72	0.0391353
2578.36	0.039018
2588	0.041876
2597.64	0.044353
2607.29	0.0418948
2616.93	0.0444348
2626.57	0.0450287
2636.21	0.0447009
2645.86	0.0470098
2655.5	0.0475717
2665.14	0.047596
2674.78	0.0473932
2684.43	0.0477433
2694.07	0.0504611
2703.71	0.0525706
2713.35	0.054723
2722.99	0.0562205
2732.64	0.0571091
2742.28	0.0599354
2751.92	0.0616237
2761.56	0.064633
2771.21	0.0667356
2780.85	0.067907
2790.49	0.069932
2800.13	0.0726971
2809.78	0.0764847
2819.42	0.078446
2829.06	0.0818134
2838.7	0.0836086
2848.34	0.0852079
2857.99	0.0866953
2867.63	0.0918014
2877.27	0.0946228
2886.91	0.0962279
2896.56	0.0998728
2906.2	0.100285
2915.84	0.101192
2925.48	0.104163
2935.13	0.108491
2944.77	0.111441
2954.41	0.112642
2964.05	0.117149
2973.7	0.12053
2983.34	0.124035
2992.98	0.124739
3002.62	0.128882
3012.26	0.131367
3021.91	0.135397
3031.55	0.13682
3041.19	0.141278
3050.83	0.141465
3060.48	0.143348
3070.12	0.145924
3079.76	0.148972
3089.4	0.151711
3099.05	0.153449
3108.69	0.155053
3118.33	0.156259
3127.97	0.158128
3137.61	0.157234
3147.26	0.158954
3156.9	0.159863
3166.54	0.156341
3176.18	0.158878
3185.83	0.156722
3195.47	0.156797
3205.11	0.154969
3214.75	0.15722
3224.4	0.160274
3234.04	0.163019
3243.68	0.162451
3253.32	0.167265
3262.97	0.166133
3272.61	0.167385
3282.25	0.164119
3291.89	0.161375
3301.53	0.157749
3311.18	0.15316
3320.82	0.148975
3330.46	0.144274
3340.1	0.143108
3349.75	0.142657
3359.39	0.142761
3369.03	0.13981
3378.67	0.141572
3388.32	0.146572
3397.96	0.153562
3407.6	0.165941
3417.24	0.174236
3426.89	0.162115
3436.53	0.14916
3446.17	0.137329
3455.81	0.130063
3465.45	0.118426
3475.1	0.112662
3484.74	0.111962
3494.38	0.104033
3504.02	0.097046
3513.67	0.0916706
3523.31	0.0944507
3532.95	0.0936097
3542.59	0.0971007
3552.24	0.0932304
3561.88	0.0805086
3571.52	0.0686724
3581.16	0.0618136
3590.8	0.0610502
3600.45	0.05462
3610.09	0.0521273
3619.73	0.0379873
3629.37	0.0325913
3639.02	0.0260909
3648.66	0.0198779
3658.3	0.0172952
3667.94	0.00993752
3677.59	0.0161153
3687.23	0.0145209
3696.87	0.00972761
3706.51	0.0112398
3716.16	0.011366
3725.8	0.00935816
3735.44	0.0111784
3745.08	0.00801357
3754.72	0.0117247
3764.37	0.0102152
3774.01	0.0103003
3783.65	0.0119371
3793.29	0.0136932
3802.94	0.0110179
3812.58	0.0120047
3822.22	0.00974009
3831.86	0.0123613
3841.51	0.00968322
3851.15	0.00872878
3860.79	0.0124525
3870.43	0.010709
3880.07	0.0107631
3889.72	0.00727324
3899.36	0.0119229
3909	0.0175717
3918.64	0.0098838
3928.29	0.00979148
3937.93	0.00947303
3947.57	0.0163925
3957.21	0.0104588
3966.86	0.0122214
3976.5	0.0132103
3986.14	0.0134843
3995.78	0.0163919
