Measurement: Infrared, Infrared Data Processed
Mineral: Pharmacolite
Rruff sample: R050537
Ideal chemistry: Ca(As^5+^O_3_OH)2H_2_O
Locality: Bohemia Region, Svornost mine, Jachymov, Czech Republic
Source: University of Arizona Mineral Museum
Description: Colorless acicular crystals
Measured chemistry: (Ca_0.97_Al_0.02_[box]_0.01_)_Σ=1_((As_0.99_P_0.01_)_Σ=1_O_3_OH)·2H_2_O
x	intensity
399.193	0.176928
408.835	0.167394
418.477	0.18762
428.12	0.211005
437.762	0.207034
447.404	0.177472
457.047	0.151684
466.689	0.125068
476.331	0.10502
485.974	0.0923582
495.616	0.0870542
505.258	0.0821424
514.901	0.0785424
524.543	0.0745105
534.185	0.0747601
543.828	0.078421
553.47	0.0869267
563.112	0.101366
572.755	0.115572
582.397	0.125272
592.039	0.126676
601.682	0.131087
611.324	0.143278
620.966	0.158518
630.609	0.174466
640.251	0.185802
649.893	0.198804
659.536	0.22165
669.178	0.246085
678.82	0.255814
688.463	0.257875
698.105	0.24308
707.747	0.214485
717.39	0.187773
727.032	0.168239
736.674	0.152174
746.317	0.136916
755.959	0.124259
765.601	0.114111
775.244	0.111057
784.886	0.116424
794.528	0.136275
804.171	0.176695
813.813	0.207505
823.455	0.216215
833.098	0.229804
842.74	0.257266
852.382	0.288524
862.025	0.285102
871.667	0.233404
881.309	0.204654
890.952	0.175251
900.594	0.137009
910.236	0.1057
919.879	0.0872137
929.521	0.0770385
939.163	0.0722831
948.806	0.0701361
958.448	0.0667127
968.09	0.0599994
977.733	0.0497843
987.375	0.0402846
997.017	0.0330136
1006.66	0.0279754
1016.3	0.0250328
1025.94	0.0229208
1035.59	0.0215765
1045.23	0.0208228
1054.87	0.0199836
1064.51	0.0194981
1074.16	0.0186123
1083.8	0.0188183
1093.44	0.018915
1103.08	0.0188785
1112.72	0.019691
1122.37	0.0199034
1132.01	0.0204986
1141.65	0.0212342
1151.3	0.0219376
1160.94	0.022863
1170.58	0.0237532
1180.22	0.0248904
1189.86	0.0263087
1199.51	0.0280674
1209.15	0.0306396
1218.79	0.0359346
1228.43	0.0461048
1238.08	0.059203
1247.72	0.0556022
1257.36	0.0423354
1267	0.0340064
1276.64	0.0304981
1286.29	0.028636
1295.93	0.0276857
1305.57	0.0276943
1315.21	0.027377
1324.86	0.0273592
1334.5	0.0275958
1344.14	0.0277231
1353.78	0.0277653
1363.43	0.0280531
1373.07	0.0282968
1382.71	0.0291181
1392.35	0.0297018
1401.99	0.0300821
1411.64	0.0308705
1421.28	0.0315623
1430.92	0.0325738
1440.57	0.0335954
1450.21	0.0343642
1459.85	0.0346445
1469.49	0.0360366
1479.13	0.038162
1488.78	0.0396419
1498.42	0.0412496
1508.06	0.0429875
1517.7	0.0448142
1527.35	0.0468034
1536.99	0.0481381
1546.63	0.0496204
1556.27	0.0510967
1565.91	0.0526814
1575.56	0.0556026
1585.2	0.058132
1594.84	0.0627366
1604.48	0.069132
1614.13	0.0757517
1623.77	0.0791443
1633.41	0.0801867
1643.05	0.08047
1652.7	0.0826564
1662.34	0.0850256
1671.98	0.0851328
1681.62	0.0766087
1691.27	0.0711126
1700.91	0.0649468
1710.55	0.0573179
1720.19	0.0522922
1729.84	0.0484517
1739.48	0.0439873
1749.12	0.0423219
1758.76	0.0418762
1768.4	0.0427481
1778.05	0.0417646
1787.69	0.0405205
1797.33	0.0395069
1806.97	0.0391932
1816.62	0.0387649
1826.26	0.0397475
1835.9	0.0381589
1845.54	0.0384431
1855.18	0.0397855
1864.83	0.0384253
1874.47	0.0393917
1884.11	0.0395108
1893.75	0.0389991
1903.4	0.0386454
1913.04	0.0374809
1922.68	0.0371737
1932.32	0.0355793
1941.97	0.036857
1951.61	0.0352609
1961.25	0.0320198
1970.89	0.0324963
1980.54	0.0373964
1990.18	0.0337967
1999.82	0.0325356
2009.46	0.0315677
2019.11	0.0335134
2028.75	0.0338658
2038.39	0.0325085
2048.03	0.0366984
2057.67	0.0376905
2067.32	0.0371549
2076.96	0.0386786
2086.6	0.0413352
2096.24	0.0412215
2105.89	0.0408891
2115.53	0.043617
2125.17	0.043312
2134.81	0.0416323
2144.45	0.0435292
2154.1	0.0469513
2163.74	0.0506976
2173.38	0.0460625
2183.02	0.0515593
2192.67	0.0555307
2202.31	0.0540157
2211.95	0.0611103
2221.59	0.0613712
2231.24	0.0633807
2240.88	0.0661437
2250.52	0.0677387
2260.16	0.069749
2269.8	0.0719355
2279.45	0.0749505
2289.09	0.0778233
2298.73	0.0800339
2308.38	0.082877
2318.02	0.0857516
2327.66	0.0871342
2337.3	0.089694
2346.94	0.090754
2356.59	0.0919367
2366.23	0.09264
2375.87	0.0914153
2385.51	0.091195
2395.16	0.0924145
2404.8	0.0929439
2414.44	0.092208
2424.08	0.0911148
2433.72	0.087915
2443.37	0.0831875
2453.01	0.0787243
2462.65	0.0744458
2472.29	0.0726589
2481.94	0.0714524
2491.58	0.0706348
2501.22	0.0700042
2510.86	0.0714958
2520.51	0.0702921
2530.15	0.0723684
2539.79	0.0717933
2549.43	0.074677
2559.07	0.0755824
2568.72	0.0773162
2578.36	0.0810148
2588	0.0829148
2597.64	0.0854785
2607.29	0.0900071
2616.93	0.0915989
2626.57	0.096225
2636.21	0.100251
2645.86	0.103543
2655.5	0.107236
2665.14	0.111174
2674.78	0.115482
2684.43	0.119393
2694.07	0.123707
2703.71	0.128994
2713.35	0.132602
2722.99	0.138975
2732.64	0.143915
2742.28	0.148519
2751.92	0.153021
2761.56	0.157715
2771.21	0.164404
2780.85	0.16917
2790.49	0.174373
2800.13	0.1791
2809.78	0.18637
2819.42	0.188852
2829.06	0.194453
2838.7	0.201226
2848.34	0.204295
2857.99	0.210787
2867.63	0.214545
2877.27	0.218212
2886.91	0.221982
2896.56	0.226254
2906.2	0.228325
2915.84	0.234138
2925.48	0.23526
2935.13	0.237953
2944.77	0.237562
2954.41	0.239308
2964.05	0.243008
2973.7	0.243327
2983.34	0.243956
2992.98	0.244335
3002.62	0.243473
3012.26	0.24335
3021.91	0.242642
3031.55	0.238808
3041.19	0.237917
3050.83	0.235236
3060.48	0.232889
3070.12	0.226861
3079.76	0.22149
3089.4	0.216142
3099.05	0.212679
3108.69	0.205724
3118.33	0.201006
3127.97	0.195465
3137.61	0.191698
3147.26	0.187373
3156.9	0.181312
3166.54	0.177968
3176.18	0.173765
3185.83	0.172398
3195.47	0.169966
3205.11	0.166662
3214.75	0.165177
3224.4	0.166454
3234.04	0.166178
3243.68	0.1666
3253.32	0.166784
3262.97	0.171705
3272.61	0.172177
3282.25	0.178252
3291.89	0.18387
3301.53	0.186956
3311.18	0.18964
3320.82	0.190795
3330.46	0.1914
3340.1	0.189575
3349.75	0.187745
3359.39	0.186348
3369.03	0.17982
3378.67	0.17861
3388.32	0.170883
3397.96	0.169166
3407.6	0.162799
3417.24	0.155025
3426.89	0.156182
3436.53	0.151195
3446.17	0.139213
3455.81	0.134134
3465.45	0.128972
3475.1	0.127656
3484.74	0.133746
3494.38	0.156389
3504.02	0.175569
3513.67	0.173798
3523.31	0.142522
3532.95	0.113165
3542.59	0.0965716
3552.24	0.0764854
3561.88	0.0654047
3571.52	0.056981
3581.16	0.055795
3590.8	0.0452019
3600.45	0.0383433
3610.09	0.0361236
3619.73	0.0339926
3629.37	0.0294395
3639.02	0.0251333
3648.66	0.0280497
3658.3	0.0237253
3667.94	0.0238474
3677.59	0.0214536
3687.23	0.0224621
3696.87	0.0214779
3706.51	0.022288
3716.16	0.0196497
3725.8	0.0258444
3735.44	0.0221245
3745.08	0.022664
3754.72	0.0247605
3764.37	0.0181673
3774.01	0.0200149
3783.65	0.0227987
3793.29	0.0236007
3802.94	0.0244062
3812.58	0.022295
3822.22	0.0266843
3831.86	0.0260552
3841.51	0.0226941
3851.15	0.0246038
3860.79	0.0247156
3870.43	0.0185788
3880.07	0.0241856
3889.72	0.0231217
3899.36	0.0258953
3909	0.0286659
3918.64	0.0289254
3928.29	0.0278863
3937.93	0.0280496
3947.57	0.0253431
3957.21	0.0259492
3966.86	0.0230055
3976.5	0.0292876
3986.14	0.0268814
3995.78	0.0293363
