Measurement: Infrared, Infrared Data Processed
Mineral: Phenakite
Rruff sample: R040046
Ideal chemistry: Be_2_SiO_4_
Locality: San Miguel de Piracicaba, Minas Gerais, Brazil
Source: University of Arizona Mineral Museum
Description: Colorless crystal fragments
Measured chemistry: Be_2.02_Si_0.99_O_4_
x	intensity
399.193	0
408.835	0.324941
418.477	0.355755
428.12	0.184229
437.762	0.0843234
447.404	0.0944221
457.047	0.149383
466.689	0.190433
476.331	0.212211
485.974	0.239044
495.616	0.258852
505.258	0.27884
514.901	0.298889
524.543	0.308324
534.185	0.324732
543.828	0.34258
553.47	0.362694
563.112	0.378759
572.755	0.403573
582.397	0.407652
592.039	0.386044
601.682	0.168047
611.324	0.318778
620.966	0.380937
630.609	0.416109
640.251	0.405642
649.893	0.422218
659.536	0.453292
669.178	0.456698
678.82	0.448821
688.463	0.41416
698.105	0.355946
707.747	0.421694
717.39	0.36135
727.032	0.3022
736.674	0.288515
746.317	0.248873
755.959	0.20125
765.601	0.262135
775.244	0.306364
784.886	0.198981
794.528	0.155464
804.171	0.121232
813.813	0.12138
823.455	0.105232
833.098	0.0764961
842.74	0.0666184
852.382	0.101357
862.025	0.184714
871.667	0.304613
881.309	0.426784
890.952	0.493173
900.594	0.443382
910.236	0.33928
919.879	0.318246
929.521	0.446444
939.163	0.37469
948.806	0.291143
958.448	0.234165
968.09	0.260188
977.733	0.265379
987.375	0.220062
997.017	0.193204
1006.66	0.171578
1016.3	0.150682
1025.94	0.138898
1035.59	0.120656
1045.23	0.105961
1054.87	0.0922545
1064.51	0.0791701
1074.16	0.0655388
1083.8	0.0512374
1093.44	0.0380179
1103.08	0.027694
1112.72	0.0217296
1122.37	0.0183246
1132.01	0.0162423
1141.65	0.0148025
1151.3	0.0134195
1160.94	0.0123613
1170.58	0.011246
1180.22	0.0108496
1189.86	0.00975436
1199.51	0.00940516
1209.15	0.0085592
1218.79	0.00792593
1228.43	0.00769526
1238.08	0.00743287
1247.72	0.0069664
1257.36	0.0068134
1267	0.00663697
1276.64	0.00667078
1286.29	0.00678636
1295.93	0.00672269
1305.57	0.00665271
1315.21	0.00690378
1324.86	0.00708452
1334.5	0.00845203
1344.14	0.00878081
1353.78	0.00932648
1363.43	0.00905035
1373.07	0.00890992
1382.71	0.00861953
1392.35	0.00918526
1401.99	0.00942116
1411.64	0.00999258
1421.28	0.0101375
1430.92	0.0101437
1440.57	0.0104403
1450.21	0.0105173
1459.85	0.0106529
1469.49	0.0103982
1479.13	0.0100655
1488.78	0.00850544
1498.42	0.00688438
1508.06	0.00659701
1517.7	0.00598312
1527.35	0.00537011
1536.99	0.00520052
1546.63	0.00516736
1556.27	0.00532275
1565.91	0.00600434
1575.56	0.00659516
1585.2	0.00708869
1594.84	0.00707657
1604.48	0.00708948
1614.13	0.00707307
1623.77	0.0070323
1633.41	0.00667367
1643.05	0.00642318
1652.7	0.00633196
1662.34	0.00583478
1671.98	0.0058961
1681.62	0.00597333
1691.27	0.00583861
1700.91	0.00598156
1710.55	0.00550501
1720.19	0.00510298
1729.84	0.00439656
1739.48	0.00382955
1749.12	0.00378942
1758.76	0.00415227
1768.4	0.00354819
1778.05	0.00355937
1787.69	0.00347749
1797.33	0.00365868
1806.97	0.00353848
1816.62	0.0032786
1826.26	0.00350639
1835.9	0.00401286
1845.54	0.00333619
1855.18	0.00281797
1864.83	0.00254664
1874.47	0.00247253
1884.11	0.00224438
1893.75	0.00254125
1903.4	0.00221567
1913.04	0.00154953
1922.68	0.00137725
1932.32	0.00049007
1941.97	-0.00114218
1951.61	-0.00216869
1961.25	-0.00471099
1970.89	-0.00342493
1980.54	0.000129754
1990.18	-0.00186332
1999.82	-0.00132707
2009.46	-0.00447108
2019.11	-0.00207187
2028.75	-0.00365224
2038.39	-0.00138053
2048.03	0.000788611
2057.67	0.00216468
2067.32	0.00141311
2076.96	0.00285192
2086.6	0.00376676
2096.24	0.00402199
2105.89	0.0024952
2115.53	0.00317275
2125.17	0.0026338
2134.81	0.00102166
2144.45	-0.000462791
2154.1	-0.000836038
2163.74	0.0036268
2173.38	0.0013641
2183.02	0.0047461
2192.67	0.00533295
2202.31	0.00769782
2211.95	0.0060155
2221.59	0.00702452
2231.24	0.00674933
2240.88	0.00659493
2250.52	0.00724319
2260.16	0.00788526
2269.8	0.00839707
2279.45	0.00831079
2289.09	0.0091787
2298.73	0.00885889
2308.38	0.00899531
2318.02	0.0101749
2327.66	0.00833748
2337.3	0.00912625
2346.94	0.00837078
2356.59	0.00868961
2366.23	0.00856215
2375.87	0.00819218
2385.51	0.00814686
2395.16	0.00802517
2404.8	0.00840043
2414.44	0.00869246
2424.08	0.00808777
2433.72	0.00846061
2443.37	0.00961926
2453.01	0.00965755
2462.65	0.00906016
2472.29	0.00877513
2481.94	0.00892053
2491.58	0.00956461
2501.22	0.00917449
2510.86	0.00974091
2520.51	0.0088605
2530.15	0.00916716
2539.79	0.0105553
2549.43	0.00946451
2559.07	0.0103602
2568.72	0.0103898
2578.36	0.00977507
2588	0.0115251
2597.64	0.010857
2607.29	0.0120298
2616.93	0.0103061
2626.57	0.0108643
2636.21	0.0112874
2645.86	0.0114133
2655.5	0.0106195
2665.14	0.0104168
2674.78	0.0106372
2684.43	0.010581
2694.07	0.011038
2703.71	0.0110884
2713.35	0.0114974
2722.99	0.0109714
2732.64	0.0114827
2742.28	0.0104621
2751.92	0.0112874
2761.56	0.0110987
2771.21	0.0117907
2780.85	0.0112276
2790.49	0.011163
2800.13	0.0117855
2809.78	0.0112985
2819.42	0.0119635
2829.06	0.0124661
2838.7	0.0127918
2848.34	0.0120114
2857.99	0.0125284
2867.63	0.0127069
2877.27	0.0125652
2886.91	0.0124638
2896.56	0.0125476
2906.2	0.0123432
2915.84	0.0124224
2925.48	0.0129735
2935.13	0.0129858
2944.77	0.0128028
2954.41	0.0129766
2964.05	0.0134607
2973.7	0.013401
2983.34	0.0131021
2992.98	0.0130029
3002.62	0.0131418
3012.26	0.0145176
3021.91	0.0132884
3031.55	0.0145347
3041.19	0.0140802
3050.83	0.0139541
3060.48	0.0143798
3070.12	0.0149638
3079.76	0.0150943
3089.4	0.0147155
3099.05	0.0142437
3108.69	0.0151126
3118.33	0.0149558
3127.97	0.0155504
3137.61	0.0157246
3147.26	0.0157691
3156.9	0.0146559
3166.54	0.0147371
3176.18	0.0163979
3185.83	0.0169459
3195.47	0.0174164
3205.11	0.0161498
3214.75	0.0169484
3224.4	0.0159182
3234.04	0.0158775
3243.68	0.0161629
3253.32	0.018242
3262.97	0.0169295
3272.61	0.0166565
3282.25	0.0175755
3291.89	0.0191258
3301.53	0.0185792
3311.18	0.0173367
3320.82	0.0164967
3330.46	0.0164605
3340.1	0.0173315
3349.75	0.0169476
3359.39	0.018172
3369.03	0.018296
3378.67	0.0193842
3388.32	0.0188295
3397.96	0.01911
3407.6	0.0183511
3417.24	0.0173806
3426.89	0.0180428
3436.53	0.0191162
3446.17	0.0186421
3455.81	0.0179882
3465.45	0.0185519
3475.1	0.018938
3484.74	0.0198289
3494.38	0.0200232
3504.02	0.0192675
3513.67	0.0209337
3523.31	0.0180721
3532.95	0.0173003
3542.59	0.018823
3552.24	0.0185098
3561.88	0.0163148
3571.52	0.018151
3581.16	0.0164434
3590.8	0.0189158
3600.45	0.0198281
3610.09	0.0172078
3619.73	0.0164458
3629.37	0.0174111
3639.02	0.0185075
3648.66	0.0146193
3658.3	0.0182071
3667.94	0.0168003
3677.59	0.0154159
3687.23	0.0161556
3696.87	0.0175413
3706.51	0.0164257
3716.16	0.0162251
3725.8	0.0150403
3735.44	0.015464
3745.08	0.0162845
3754.72	0.0184894
3764.37	0.0171514
3774.01	0.0148788
3783.65	0.0166972
3793.29	0.0166111
3802.94	0.0167988
3812.58	0.0188663
3822.22	0.0194766
3831.86	0.0167942
3841.51	0.017435
3851.15	0.0166172
3860.79	0.0191335
3870.43	0.0189017
3880.07	0.0200208
3889.72	0.0189738
3899.36	0.0171519
3909	0.0179447
3918.64	0.0176537
3928.29	0.0213084
3937.93	0.0174612
3947.57	0.0199646
3957.21	0.0174788
3966.86	0.0179194
3976.5	0.0178974
3986.14	0.0189583
3995.78	0.0194152
