Measurement: Infrared, Infrared Data Processed
Mineral: Phlogopite
Rruff sample: R050485
Ideal chemistry: KMg_3_(Si_3_Al)O_10_(OH)_2_
Locality: Libby, Montana, USA
Source: California Institute of Technology
Description: Green micaceous fragment
Measured chemistry: (K_0.92_Na_0.06_Ca_0.02_)(Mg_0.80_Fe^2+^_0.17_Ti_0.02_Cr_0.01_)_3_(Si_2.83_Al_1.17_)O_10_(OH)_2_
x	intensity
374.123	0.198176
383.765	0.185548
393.407	0.18783
403.05	0.201859
412.692	0.211977
422.334	0.21615
431.976	0.225272
441.619	0.227407
451.261	0.221174
460.904	0.201043
470.546	0.169528
480.188	0.145127
489.83	0.135953
499.473	0.1236
509.115	0.107506
518.758	0.092762
528.4	0.0802403
538.042	0.0754367
547.684	0.0756903
557.327	0.0828491
566.969	0.0928021
576.611	0.106194
586.254	0.121698
595.896	0.134359
605.538	0.14326
615.181	0.144559
624.823	0.137235
634.466	0.140164
644.108	0.148625
653.75	0.147252
663.393	0.143105
673.035	0.136913
682.677	0.129406
692.319	0.119883
701.962	0.114089
711.604	0.109914
721.246	0.107042
730.889	0.101971
740.531	0.0954694
750.173	0.0904385
759.816	0.0861634
769.458	0.0814247
779.101	0.0773579
788.743	0.0743012
798.385	0.0720189
808.028	0.0710014
817.67	0.0688117
827.312	0.0639943
836.955	0.0615518
846.597	0.0601986
856.239	0.0601995
865.881	0.0598614
875.524	0.06091
885.166	0.0677209
894.808	0.0817727
904.451	0.0995145
914.093	0.11447
923.736	0.132474
933.378	0.156306
943.02	0.183535
952.663	0.200924
962.305	0.205546
971.947	0.207002
981.59	0.208007
991.232	0.199428
1000.87	0.176289
1010.52	0.146376
1020.16	0.117382
1029.8	0.0927149
1039.44	0.0746843
1049.09	0.0634574
1058.73	0.0550674
1068.37	0.047226
1078.01	0.0398015
1087.65	0.0329896
1097.3	0.0267415
1106.94	0.0222476
1116.58	0.0188467
1126.22	0.0151614
1135.87	0.0128672
1145.51	0.0110306
1155.15	0.00846145
1164.79	0.00758233
1174.44	0.00642553
1184.08	0.00586624
1193.72	0.00520533
1203.36	0.00455639
1213.01	0.0041059
1222.65	0.00373497
1232.29	0.00329893
1241.93	0.00296796
1251.58	0.00258066
1261.22	0.00224971
1270.86	0.00222791
1280.5	0.00220829
1290.14	0.00198585
1299.79	0.00201073
1309.43	0.00206381
1319.07	0.00213308
1328.71	0.00201268
1338.36	0.00197434
1348	0.00205353
1357.64	0.00235355
1367.28	0.00262488
1376.92	0.00335458
1386.57	0.00245389
1396.21	0.00235051
1405.85	0.0025682
1415.49	0.00275892
1425.14	0.00304614
1434.78	0.0031076
1444.42	0.00289004
1454.06	0.00290269
1463.71	0.00236165
1473.35	0.00170413
1482.99	0.00121568
1492.63	0.00106145
1502.28	0.0012438
1511.92	0.00129221
1521.56	0.0016194
1531.2	0.00190273
1540.85	0.00227059
1550.49	0.00253263
1560.13	0.00304337
1569.77	0.00344523
1579.41	0.00375045
1589.06	0.00385323
1598.7	0.00442612
1608.34	0.00523067
1617.98	0.0060045
1627.63	0.00654235
1637.27	0.00698144
1646.91	0.00714752
1656.55	0.00665462
1666.19	0.00584915
1675.84	0.00473883
1685.48	0.00390726
1695.12	0.00311533
1704.77	0.00268815
1714.41	0.00222037
1724.05	0.00202252
1733.69	0.00195837
1743.33	0.0012356
1752.98	0.00098142
1762.62	0.000594354
1772.26	0.00047386
1781.9	0.000602049
1791.55	0.000249195
1801.19	0.00030249
1810.83	0.000405345
1820.47	0.00010855
1830.12	0.000175931
1839.76	-0.000327242
1849.4	3.1145e-05
1859.04	6.46805e-05
1868.68	-0.000334103
1878.33	-0.000623214
1887.97	-0.000805124
1897.61	-0.00102564
1907.25	-0.00121378
1916.9	-0.00139546
1926.54	-0.00132578
1936.18	-0.00149985
1945.82	-0.00145184
1955.46	-0.00208445
1965.11	-0.00205151
1974.75	-0.00267875
1984.39	-0.00195795
1994.04	-0.00185535
2003.68	-0.00200071
2013.32	-0.00114262
2022.96	-0.00225807
2032.6	-0.000250382
2042.25	-1.34127e-05
2051.89	-0.000100587
2061.53	7.68569e-05
2071.17	-4.91743e-05
2080.82	0.000797674
2090.46	-0.000188307
2100.1	0.00102697
2109.74	0.000462447
2119.39	3.52738e-05
2129.03	6.44135e-05
2138.67	0.000807765
2148.31	0.00192497
2157.95	0.00149584
2167.6	0.00122194
2177.24	0.00255108
2186.88	0.00169382
2196.52	0.00128632
2206.17	0.00118153
2215.81	0.00149227
2225.45	-2.7061e-05
2235.09	0.000108797
2244.74	0.000561476
2254.38	0.0011625
2264.02	0.000912238
2273.66	0.00100169
2283.3	0.000962289
2292.95	0.000988189
2302.59	0.00102816
2312.23	0.000607235
2321.87	0.00121787
2331.52	0.000807287
2341.16	0.00052458
2350.8	0.00076947
2360.44	0.000615723
2370.09	0.00049693
2379.73	0.00103192
2389.37	0.0006068
2399.01	0.000806669
2408.66	0.00114665
2418.3	0.00124111
2427.94	0.00102688
2437.58	0.000712789
2447.22	0.00056195
2456.87	0.00122539
2466.51	0.00132145
2476.15	0.00125738
2485.79	0.00084175
2495.44	0.00090363
2505.08	0.00095823
2514.72	0.000776836
2524.36	0.000394226
2534.01	0.000153143
2543.65	0.000738037
2553.29	0.000873782
2562.93	0.00104072
2572.57	0.00120151
2582.22	0.00122961
2591.86	0.00135453
2601.5	0.00125191
2611.14	0.00166687
2620.79	0.00176812
2630.43	0.00180637
2640.07	0.00157749
2649.71	0.00189615
2659.36	0.00167993
2669	0.00188288
2678.64	0.00185614
2688.28	0.00149531
2697.93	0.00189006
2707.57	0.00238616
2717.21	0.00246898
2726.85	0.00263952
2736.49	0.00247184
2746.14	0.00259051
2755.78	0.0029438
2765.42	0.00270687
2775.06	0.00290228
2784.71	0.00347435
2794.35	0.00306213
2803.99	0.00351118
2813.63	0.00376318
2823.28	0.00418011
2832.92	0.00516788
2842.56	0.00585709
2852.2	0.0044887
2861.84	0.0056964
2871.49	0.00637537
2881.13	0.0064394
2890.77	0.00614321
2900.41	0.00710981
2910.06	0.00763419
2919.7	0.00904627
2929.34	0.0093678
2938.98	0.00784939
2948.62	0.00943338
2958.27	0.0093441
2967.91	0.00753806
2977.55	0.00601377
2987.2	0.00527599
2996.84	0.0059338
3006.48	0.00566456
3016.12	0.00307161
3025.76	0.00633609
3035.41	0.00638937
3045.05	0.00686896
3054.69	0.00692616
3064.33	0.00718805
3073.98	0.00769569
3083.62	0.0069492
3093.26	0.00770791
3102.9	0.0083097
3112.55	0.00798687
3122.19	0.00822794
3131.83	0.00947042
3141.47	0.00966295
3151.11	0.0106726
3160.76	0.011299
3170.4	0.0116995
3180.04	0.0113808
3189.68	0.0127338
3199.33	0.0127004
3208.97	0.013712
3218.61	0.0134491
3228.25	0.0142038
3237.9	0.015083
3247.54	0.015123
3257.18	0.01498
3266.82	0.0156215
3276.47	0.0158265
3286.11	0.0157883
3295.75	0.016243
3305.39	0.0170317
3315.03	0.0169394
3324.68	0.0167313
3334.32	0.017967
3343.96	0.0173371
3353.6	0.0181829
3363.25	0.0188847
3372.89	0.0182584
3382.53	0.0189683
3392.17	0.018916
3401.82	0.0192916
3411.46	0.0191832
3421.1	0.0198443
3430.74	0.0190521
3440.39	0.0193364
3450.03	0.019713
3459.67	0.0188518
3469.31	0.0187318
3478.95	0.0191832
3488.6	0.0186547
3498.24	0.0183832
3507.88	0.0188175
3517.52	0.0186597
3527.17	0.0185092
3536.81	0.0185138
3546.45	0.0174743
3556.09	0.0171662
3565.74	0.0165788
3575.38	0.0158148
3585.02	0.0159623
3594.66	0.0150577
3604.3	0.0147798
3613.95	0.0148792
3623.59	0.0137294
3633.23	0.0122303
3642.87	0.0105482
3652.52	0.0104432
3662.16	0.0103605
3671.8	0.0102492
3681.44	0.00707377
3691.09	0.00649973
3700.73	0.00720463
3710.37	0.00778591
3720.01	0.00628003
3729.66	0.00407352
3739.3	0.00326317
3748.94	0.00291922
3758.58	0.00223719
3768.22	0.00300211
3777.87	0.0037147
3787.51	0.00333306
3797.15	0.00364263
3806.79	0.00291976
3816.44	0.00345563
3826.08	0.00365308
3835.72	0.00321239
3845.36	0.0028363
3855.01	0.00250818
3864.65	0.00335653
3874.29	0.00393311
3883.93	0.0041512
3893.57	0.00394877
3903.22	0.00405797
3912.86	0.00456152
3922.5	0.0041037
3932.14	0.0040728
3941.79	0.00378081
3951.43	0.00374693
3961.07	0.00454104
3970.71	0.00444833
3980.36	0.00459579
3990	0.00506082
3999.64	0.0043699
