Measurement: Infrared, Infrared Data Processed
Mineral: Portlandite
Rruff sample: R070210
Ideal chemistry: Ca(OH)_2_
Locality: N'Chwaning II mine, Kalahari Manganese Field, northern Cape Province, South Africa
Source: Michael Scott
Description: White flexible platy crystals associated with calcite
Measured chemistry: Ca_1.00_(OH)_2_
x	intensity
374.123	0.0566217
383.765	0.056032
393.407	0.0538017
403.05	0.0514863
412.692	0.0456096
422.334	0.0431732
431.976	0.0387276
441.619	0.0337461
451.261	0.0322136
460.904	0.0296663
470.546	0.0289119
480.188	0.0261511
489.83	0.0244748
499.473	0.0219204
509.115	0.0200171
518.758	0.0186673
528.4	0.01754
538.042	0.0170904
547.684	0.0168163
557.327	0.0152362
566.969	0.013941
576.611	0.0124307
586.254	0.0112305
595.896	0.00942844
605.538	0.00745377
615.181	0.00662433
624.823	0.00579293
634.466	0.00538436
644.108	0.00508758
653.75	0.00474755
663.393	0.00399791
673.035	0.00379284
682.677	0.00330642
692.319	0.00280764
701.962	0.00268883
711.604	0.00247836
721.246	0.00208886
730.889	0.00215096
740.531	0.00213326
750.173	0.00196309
759.816	0.00186912
769.458	0.00199171
779.101	0.00202391
788.743	0.0021135
798.385	0.00183548
808.028	0.00166374
817.67	0.00177985
827.312	0.00177707
836.955	0.00184421
846.597	0.00204752
856.239	0.00306441
865.881	0.0037733
875.524	0.00427014
885.166	0.00221893
894.808	0.00193703
904.451	0.001786
914.093	0.00170402
923.736	0.00191634
933.378	0.00172427
943.02	0.00181863
952.663	0.00182815
962.305	0.00187985
971.947	0.00197059
981.59	0.00192813
991.232	0.00208969
1000.87	0.0021457
1010.52	0.00230091
1020.16	0.00226913
1029.8	0.00215006
1039.44	0.00237111
1049.09	0.00249694
1058.73	0.00271379
1068.37	0.00278026
1078.01	0.0028439
1087.65	0.00278604
1097.3	0.00286485
1106.94	0.00281878
1116.58	0.00280702
1126.22	0.00283388
1135.87	0.00260071
1145.51	0.00269799
1155.15	0.00246476
1164.79	0.00227429
1174.44	0.00236936
1184.08	0.00232233
1193.72	0.0025196
1203.36	0.00247
1213.01	0.0025761
1222.65	0.00257484
1232.29	0.0026447
1241.93	0.00253898
1251.58	0.00250368
1261.22	0.00269002
1270.86	0.00290267
1280.5	0.00287899
1290.14	0.00294984
1299.79	0.00298818
1309.43	0.00300551
1319.07	0.00321244
1328.71	0.00350406
1338.36	0.00396077
1348	0.00484932
1357.64	0.00626521
1367.28	0.00759833
1376.92	0.00966618
1386.57	0.0118644
1396.21	0.0133998
1405.85	0.0146357
1415.49	0.0148104
1425.14	0.0146965
1434.78	0.014359
1444.42	0.0141588
1454.06	0.0136238
1463.71	0.0137642
1473.35	0.0137114
1482.99	0.0136132
1492.63	0.0130499
1502.28	0.0120456
1511.92	0.0112124
1521.56	0.00996142
1531.2	0.00921113
1540.85	0.00793393
1550.49	0.0075415
1560.13	0.0061822
1569.77	0.00602693
1579.41	0.00645702
1589.06	0.00710732
1598.7	0.00675956
1608.34	0.006324
1617.98	0.00543779
1627.63	0.00500236
1637.27	0.00411512
1646.91	0.00320971
1656.55	0.00306605
1666.19	0.00269224
1675.84	0.00213906
1685.48	0.00207066
1695.12	0.00190212
1704.77	0.00218239
1714.41	0.00194216
1724.05	0.00215534
1733.69	0.00152497
1743.33	0.00192338
1752.98	0.00211996
1762.62	0.0020761
1772.26	0.00217135
1781.9	0.00208085
1791.55	0.00192087
1801.19	0.00222129
1810.83	0.00213834
1820.47	0.00232283
1830.12	0.00229272
1839.76	0.00204408
1849.4	0.0021127
1859.04	0.0021274
1868.68	0.00204969
1878.33	0.0023908
1887.97	0.00230949
1897.61	0.00236197
1907.25	0.00191891
1916.9	0.00222701
1926.54	0.00175424
1936.18	0.00201933
1945.82	0.00153654
1955.46	0.00215305
1965.11	0.00130325
1974.75	0.00220731
1984.39	0.00241468
1994.04	0.0013772
2003.68	0.00152477
2013.32	0.00137292
2022.96	0.00183675
2032.6	0.00230162
2042.25	0.00262006
2051.89	0.0028294
2061.53	0.0026814
2071.17	0.00333406
2080.82	0.00265317
2090.46	0.00216236
2100.1	0.00269942
2109.74	0.00266103
2119.39	0.00293151
2129.03	0.00295172
2138.67	0.00281823
2148.31	0.0030841
2157.95	0.00196483
2167.6	0.0034684
2177.24	0.00317436
2186.88	0.00176624
2196.52	0.00210261
2206.17	0.00176216
2215.81	0.00236442
2225.45	0.00223779
2235.09	0.00353495
2244.74	0.00221878
2254.38	0.0023423
2264.02	0.00299101
2273.66	0.00305496
2283.3	0.00343612
2292.95	0.00340299
2302.59	0.00287921
2312.23	0.00315368
2321.87	0.00280961
2331.52	0.00252968
2341.16	0.00248547
2350.8	0.00268686
2360.44	0.00246958
2370.09	0.00237647
2379.73	0.00293526
2389.37	0.00330712
2399.01	0.00343001
2408.66	0.00356827
2418.3	0.00316015
2427.94	0.00335351
2437.58	0.00308483
2447.22	0.00327005
2456.87	0.00316275
2466.51	0.00341087
2476.15	0.00308524
2485.79	0.00364391
2495.44	0.00369821
2505.08	0.00303068
2514.72	0.00391495
2524.36	0.00359199
2534.01	0.00324524
2543.65	0.00363628
2553.29	0.00338867
2562.93	0.0036971
2572.57	0.00352766
2582.22	0.00342751
2591.86	0.00296035
2601.5	0.00308382
2611.14	0.00330123
2620.79	0.00348962
2630.43	0.0035947
2640.07	0.00334895
2649.71	0.00356937
2659.36	0.00346922
2669	0.00362187
2678.64	0.00337866
2688.28	0.00353466
2697.93	0.00339653
2707.57	0.00367862
2717.21	0.00357477
2726.85	0.00374171
2736.49	0.00346882
2746.14	0.00341606
2755.78	0.00307546
2765.42	0.00336938
2775.06	0.00353678
2784.71	0.00314399
2794.35	0.00361771
2803.99	0.0036082
2813.63	0.00324785
2823.28	0.00352782
2832.92	0.00381044
2842.56	0.00415185
2852.2	0.00395818
2861.84	0.00420217
2871.49	0.00408296
2881.13	0.00413229
2890.77	0.00411545
2900.41	0.00410747
2910.06	0.00457518
2919.7	0.00440237
2929.34	0.00494179
2938.98	0.00437864
2948.62	0.00432662
2958.27	0.00419845
2967.91	0.00439209
2977.55	0.00432695
2987.2	0.00414522
2996.84	0.00437675
3006.48	0.00411807
3016.12	0.00591637
3025.76	0.00440958
3035.41	0.00423684
3045.05	0.00453656
3054.69	0.00453465
3064.33	0.00487745
3073.98	0.00456159
3083.62	0.00510367
3093.26	0.00447899
3102.9	0.00505246
3112.55	0.00488213
3122.19	0.00469623
3131.83	0.00491201
3141.47	0.00472309
3151.11	0.005045
3160.76	0.00479838
3170.4	0.00490776
3180.04	0.00532666
3189.68	0.00516455
3199.33	0.00494744
3208.97	0.00548336
3218.61	0.00582725
3228.25	0.00492789
3237.9	0.00615431
3247.54	0.0061458
3257.18	0.0054919
3266.82	0.00642762
3276.47	0.0059113
3286.11	0.00618781
3295.75	0.00649572
3305.39	0.00596316
3315.03	0.00622573
3324.68	0.00616005
3334.32	0.00663086
3343.96	0.00574067
3353.6	0.00584041
3363.25	0.00622654
3372.89	0.00595234
3382.53	0.00604607
3392.17	0.00644083
3401.82	0.00554486
3411.46	0.00626155
3421.1	0.00609469
3430.74	0.00546295
3440.39	0.0065594
3450.03	0.00598184
3459.67	0.00594166
3469.31	0.00579188
3478.95	0.00597099
3488.6	0.00628786
3498.24	0.00649585
3507.88	0.00676692
3517.52	0.00646508
3527.17	0.00629745
3536.81	0.00681245
3546.45	0.00731982
3556.09	0.00623099
3565.74	0.00724188
3575.38	0.00699589
3585.02	0.0075693
3594.66	0.00829257
3604.3	0.00943137
3613.95	0.0132237
3623.59	0.0193954
3633.23	0.0390668
3642.87	0.0531134
3652.52	0.00710397
3662.16	0.00320042
3671.8	0.00295866
3681.44	0.001941
3691.09	0.00294369
3700.73	0.0035669
3710.37	0.00376922
3720.01	0.00310094
3729.66	0.00433207
3739.3	0.00345221
3748.94	0.00325562
3758.58	0.00351384
3768.22	0.00442902
3777.87	0.00397802
3787.51	0.00472666
3797.15	0.00448673
3806.79	0.00396826
3816.44	0.00268878
3826.08	0.00409089
3835.72	0.0027959
3845.36	0.00433731
3855.01	0.00324934
3864.65	0.003666
3874.29	0.00493612
3883.93	0.00393961
3893.57	0.00431354
3903.22	0.00351569
3912.86	0.00469048
3922.5	0.00343842
3932.14	0.00429287
3941.79	0.00419101
3951.43	0.00437957
3961.07	0.00450639
3970.71	0.00463629
3980.36	0.00447109
3990	0.00454627
3999.64	0.00395657
