Measurement: Infrared, Infrared Data Processed
Mineral: Prehnite
Rruff sample: R050055
Ideal chemistry: Ca_2_Al(Si_3_Al)O_10_(OH)_2_
Locality: Diako, Sandare District, Mali
Source: Rock Currier
Description: Light green reniform aggregate
Measured chemistry: Ca_2_(Al_.886_Fe_.114_)_2_Si_3_O_10_(OH)_2_
x	intensity
399.193	0.147642
408.835	0.184917
418.477	0.176632
428.12	0.164213
437.762	0.158861
447.404	0.132894
457.047	0.131926
466.689	0.140184
476.331	0.131711
485.974	0.109872
495.616	0.102653
505.258	0.0990982
514.901	0.0960699
524.543	0.0988641
534.185	0.103409
543.828	0.087932
553.47	0.0613703
563.112	0.0414083
572.755	0.0263772
582.397	0.0212562
592.039	0.0179122
601.682	0.0180398
611.324	0.0197283
620.966	0.0201464
630.609	0.0230724
640.251	0.0261986
649.893	0.0278506
659.536	0.0340431
669.178	0.0395339
678.82	0.0426651
688.463	0.0498106
698.105	0.0624723
707.747	0.0798349
717.39	0.105931
727.032	0.140427
736.674	0.171928
746.317	0.156484
755.959	0.136038
765.601	0.105063
775.244	0.0773484
784.886	0.0745377
794.528	0.0852414
804.171	0.0915458
813.813	0.0928796
823.455	0.0683414
833.098	0.0490729
842.74	0.0534783
852.382	0.0603976
862.025	0.0753488
871.667	0.0947427
881.309	0.100312
890.952	0.120433
900.594	0.155819
910.236	0.196674
919.879	0.22963
929.521	0.230849
939.163	0.207875
948.806	0.178046
958.448	0.171399
968.09	0.198421
977.733	0.219052
987.375	0.210913
997.017	0.191274
1006.66	0.16059
1016.3	0.12986
1025.94	0.101016
1035.59	0.0780695
1045.23	0.0743523
1054.87	0.118986
1064.51	0.132207
1074.16	0.127968
1083.8	0.105837
1093.44	0.0842119
1103.08	0.0679775
1112.72	0.0522336
1122.37	0.0364719
1132.01	0.0232845
1141.65	0.0146665
1151.3	0.0101974
1160.94	0.00811315
1170.58	0.00681587
1180.22	0.00604351
1189.86	0.00490967
1199.51	0.00453715
1209.15	0.00369634
1218.79	0.00349989
1228.43	0.00313012
1238.08	0.00306072
1247.72	0.00301827
1257.36	0.00273201
1267	0.00213067
1276.64	0.00246792
1286.29	0.0022056
1295.93	0.00229218
1305.57	0.0024398
1315.21	0.00268479
1324.86	0.00295978
1334.5	0.00290968
1344.14	0.00297056
1353.78	0.00305113
1363.43	0.00337963
1373.07	0.00410279
1382.71	0.00380876
1392.35	0.0044136
1401.99	0.00467211
1411.64	0.00520987
1421.28	0.00526077
1430.92	0.00583086
1440.57	0.00620542
1450.21	0.00641561
1459.85	0.00622227
1469.49	0.00688886
1479.13	0.00603096
1488.78	0.00552393
1498.42	0.00555948
1508.06	0.00468708
1517.7	0.0053925
1527.35	0.00634346
1536.99	0.00659802
1546.63	0.00763852
1556.27	0.00748156
1565.91	0.00847011
1575.56	0.00664281
1585.2	0.00836199
1594.84	0.00855147
1604.48	0.00834141
1614.13	0.00816318
1623.77	0.00799445
1633.41	0.00795065
1643.05	0.0086069
1652.7	0.00581242
1662.34	0.00846397
1671.98	0.00846595
1681.62	0.00747453
1691.27	0.00778996
1700.91	0.005958
1710.55	0.00719267
1720.19	0.00732869
1729.84	0.00660988
1739.48	0.00648947
1749.12	0.00606076
1758.76	0.00661954
1768.4	0.00591072
1778.05	0.00611636
1787.69	0.00659389
1797.33	0.00609793
1806.97	0.00644179
1816.62	0.00606338
1826.26	0.00660894
1835.9	0.00619531
1845.54	0.00467906
1855.18	0.00620998
1864.83	0.00555458
1874.47	0.00584304
1884.11	0.00554005
1893.75	0.00535646
1903.4	0.00409402
1913.04	0.00528193
1922.68	0.00299249
1932.32	0.00463333
1941.97	0.001994
1951.61	0.000724854
1961.25	3.12032e-05
1970.89	-0.00242501
1980.54	0.00194549
1990.18	0.000215891
1999.82	0.00086868
2009.46	0.00424945
2019.11	0.00248199
2028.75	0.00309836
2038.39	0.00438957
2048.03	0.00506714
2057.67	0.00524976
2067.32	0.0060524
2076.96	0.00868536
2086.6	0.0070692
2096.24	0.00762873
2105.89	0.00661875
2115.53	0.004886
2125.17	0.0042587
2134.81	0.00336807
2144.45	0.00404627
2154.1	-0.00116641
2163.74	0.00670335
2173.38	0.00543203
2183.02	0.0046911
2192.67	0.00860866
2202.31	0.00683241
2211.95	0.00919004
2221.59	0.0107591
2231.24	0.00997375
2240.88	0.0119334
2250.52	0.0108215
2260.16	0.0135941
2269.8	0.0129429
2279.45	0.0145763
2289.09	0.014509
2298.73	0.0136733
2308.38	0.0144631
2318.02	0.0160518
2327.66	0.0143592
2337.3	0.0141288
2346.94	0.0143714
2356.59	0.0143631
2366.23	0.0140214
2375.87	0.0134758
2385.51	0.0129316
2395.16	0.0127948
2404.8	0.0135633
2414.44	0.0133874
2424.08	0.0138232
2433.72	0.0136919
2443.37	0.0142177
2453.01	0.0147049
2462.65	0.014899
2472.29	0.0138904
2481.94	0.0150273
2491.58	0.0133741
2501.22	0.0155301
2510.86	0.0166604
2520.51	0.0144897
2530.15	0.0141042
2539.79	0.015555
2549.43	0.0166522
2559.07	0.016465
2568.72	0.0168281
2578.36	0.0159628
2588	0.0160195
2597.64	0.0166482
2607.29	0.0175959
2616.93	0.0181132
2626.57	0.0166813
2636.21	0.0175874
2645.86	0.0173311
2655.5	0.0171658
2665.14	0.0165457
2674.78	0.0167416
2684.43	0.0164949
2694.07	0.0170422
2703.71	0.0175999
2713.35	0.0162031
2722.99	0.0177246
2732.64	0.0176407
2742.28	0.0174004
2751.92	0.0176341
2761.56	0.018635
2771.21	0.0183635
2780.85	0.0179118
2790.49	0.0188135
2800.13	0.0192212
2809.78	0.018496
2819.42	0.0190603
2829.06	0.0203727
2838.7	0.0198528
2848.34	0.020516
2857.99	0.0188594
2867.63	0.018779
2877.27	0.020067
2886.91	0.0209023
2896.56	0.0215313
2906.2	0.0207721
2915.84	0.0218734
2925.48	0.0209343
2935.13	0.0189752
2944.77	0.020352
2954.41	0.0192204
2964.05	0.018906
2973.7	0.0205482
2983.34	0.0209442
2992.98	0.0207483
3002.62	0.0207937
3012.26	0.0210193
3021.91	0.0204722
3031.55	0.0204726
3041.19	0.0204604
3050.83	0.0193702
3060.48	0.0207603
3070.12	0.0236672
3079.76	0.0236737
3089.4	0.0212944
3099.05	0.021478
3108.69	0.0218926
3118.33	0.0223863
3127.97	0.0234889
3137.61	0.0226171
3147.26	0.0258425
3156.9	0.0255983
3166.54	0.0248743
3176.18	0.0264193
3185.83	0.0254312
3195.47	0.0268739
3205.11	0.0250405
3214.75	0.0251018
3224.4	0.0244085
3234.04	0.0278678
3243.68	0.0259005
3253.32	0.0259226
3262.97	0.0285051
3272.61	0.0282127
3282.25	0.0282213
3291.89	0.0266201
3301.53	0.0309646
3311.18	0.0287617
3320.82	0.0282721
3330.46	0.0296771
3340.1	0.0316519
3349.75	0.0329206
3359.39	0.02922
3369.03	0.034789
3378.67	0.0346667
3388.32	0.0361272
3397.96	0.0370602
3407.6	0.038322
3417.24	0.0391174
3426.89	0.0439941
3436.53	0.0532338
3446.17	0.0608384
3455.81	0.0680947
3465.45	0.0721469
3475.1	0.0874702
3484.74	0.0967897
3494.38	0.0720171
3504.02	0.0418494
3513.67	0.0291145
3523.31	0.0244141
3532.95	0.0223575
3542.59	0.0232546
3552.24	0.0245748
3561.88	0.0244414
3571.52	0.0255884
3581.16	0.0257212
3590.8	0.0255854
3600.45	0.025928
3610.09	0.0242738
3619.73	0.0224525
3629.37	0.0219691
3639.02	0.0268646
3648.66	0.0250603
3658.3	0.0245927
3667.94	0.0207069
3677.59	0.0236947
3687.23	0.0215317
3696.87	0.023095
3706.51	0.0239622
3716.16	0.0288089
3725.8	0.0252044
3735.44	0.0209105
3745.08	0.0236697
3754.72	0.0304963
3764.37	0.0244064
3774.01	0.026103
3783.65	0.0303401
3793.29	0.0307115
3802.94	0.0256886
3812.58	0.0316898
3822.22	0.02757
3831.86	0.0254349
3841.51	0.0307223
3851.15	0.0241456
3860.79	0.0274103
3870.43	0.0280108
3880.07	0.0282084
3889.72	0.0274475
3899.36	0.0281507
3909	0.0319228
3918.64	0.0293336
3928.29	0.0291875
3937.93	0.029119
3947.57	0.031414
3957.21	0.0312196
3966.86	0.0340122
3976.5	0.0307137
3986.14	0.0282854
3995.78	0.033847
