Measurement: Infrared, Infrared Data Processed
Mineral: Pyromorphite
Rruff sample: R050085
Ideal chemistry: Pb^2+^_5_(PO_4_)_3_Cl
Locality: Bunker Hill mine, Shoshone County, Idaho, USA
Source: Eugene Schlepp
Description: Group of orange hexagonal prisms
Measured chemistry: Pb_5.00_(P_0.96_As_0.04_O_4_)_3_Cl_1.00_
x	intensity
399.193	0
408.835	0.0732665
418.477	0.0935805
428.12	0.0953437
437.762	0.0908259
447.404	0.0826568
457.047	0.0991477
466.689	0.117251
476.331	0.141626
485.974	0.165516
495.616	0.201051
505.258	0.241721
514.901	0.286278
524.543	0.343861
534.185	0.379462
543.828	0.243531
553.47	0.129552
563.112	0.211622
572.755	0.208436
582.397	0.0757438
592.039	0.0328456
601.682	0.0279122
611.324	0.0280674
620.966	0.0319241
630.609	0.0360208
640.251	0.0423557
649.893	0.0475297
659.536	0.0541761
669.178	0.0617597
678.82	0.0695962
688.463	0.0779668
698.105	0.0863408
707.747	0.0954117
717.39	0.105466
727.032	0.116433
736.674	0.128676
746.317	0.141201
755.959	0.156437
765.601	0.173408
775.244	0.192785
784.886	0.218742
794.528	0.210502
804.171	0.225145
813.813	0.231195
823.455	0.212995
833.098	0.225143
842.74	0.251966
852.382	0.273684
862.025	0.295175
871.667	0.318723
881.309	0.344061
890.952	0.369526
900.594	0.39717
910.236	0.427621
919.879	0.458796
929.521	0.449636
939.163	0.49321
948.806	0.51192
958.448	0.491388
968.09	0.418571
977.733	0.344586
987.375	0.309566
997.017	0.31418
1006.66	0.326836
1016.3	0.323465
1025.94	0.27959
1035.59	0.219954
1045.23	0.170895
1054.87	0.131521
1064.51	0.0961233
1074.16	0.0667252
1083.8	0.0473043
1093.44	0.0358004
1103.08	0.0277135
1112.72	0.0227373
1122.37	0.0200433
1132.01	0.0175689
1141.65	0.0150557
1151.3	0.0133171
1160.94	0.0123948
1170.58	0.0121335
1180.22	0.0122577
1189.86	0.0126065
1199.51	0.0129912
1209.15	0.0138115
1218.79	0.0144553
1228.43	0.0154649
1238.08	0.0161183
1247.72	0.0172322
1257.36	0.0181752
1267	0.019882
1276.64	0.0212863
1286.29	0.0239315
1295.93	0.0275471
1305.57	0.0326939
1315.21	0.0358821
1324.86	0.0355739
1334.5	0.0343573
1344.14	0.0344426
1353.78	0.0349603
1363.43	0.0365194
1373.07	0.0384164
1382.71	0.0400223
1392.35	0.0412887
1401.99	0.0431826
1411.64	0.044258
1421.28	0.0455199
1430.92	0.0466395
1440.57	0.0475717
1450.21	0.0465843
1459.85	0.0451664
1469.49	0.0439977
1479.13	0.0442727
1488.78	0.0442213
1498.42	0.0448847
1508.06	0.0449111
1517.7	0.0464614
1527.35	0.0477842
1536.99	0.0485367
1546.63	0.0498651
1556.27	0.0507902
1565.91	0.0518316
1575.56	0.0519873
1585.2	0.0529291
1594.84	0.0534663
1604.48	0.0544628
1614.13	0.0550448
1623.77	0.0559613
1633.41	0.0566173
1643.05	0.0577321
1652.7	0.0576897
1662.34	0.0596328
1671.98	0.0610725
1681.62	0.0619194
1691.27	0.0631634
1700.91	0.0630631
1710.55	0.0638416
1720.19	0.0642903
1729.84	0.0646875
1739.48	0.0652162
1749.12	0.0661329
1758.76	0.0672192
1768.4	0.06832
1778.05	0.0692036
1787.69	0.0703289
1797.33	0.0712671
1806.97	0.0719273
1816.62	0.0731655
1826.26	0.0743083
1835.9	0.076259
1845.54	0.0760767
1855.18	0.0763294
1864.83	0.0788324
1874.47	0.0788414
1884.11	0.0773468
1893.75	0.078598
1903.4	0.0790792
1913.04	0.080086
1922.68	0.079082
1932.32	0.0797951
1941.97	0.0795232
1951.61	0.0774952
1961.25	0.0768407
1970.89	0.0747357
1980.54	0.0803621
1990.18	0.0798704
1999.82	0.0793388
2009.46	0.0795974
2019.11	0.0802781
2028.75	0.0794734
2038.39	0.080547
2048.03	0.0840776
2057.67	0.0851215
2067.32	0.0863717
2076.96	0.0881802
2086.6	0.090524
2096.24	0.0898817
2105.89	0.0915597
2115.53	0.0925274
2125.17	0.0920057
2134.81	0.0913177
2144.45	0.0919498
2154.1	0.0922864
2163.74	0.0973402
2173.38	0.096847
2183.02	0.0980845
2192.67	0.0999967
2202.31	0.100995
2211.95	0.101967
2221.59	0.103423
2231.24	0.103222
2240.88	0.104622
2250.52	0.105
2260.16	0.105865
2269.8	0.107068
2279.45	0.108006
2289.09	0.109299
2298.73	0.109911
2308.38	0.110102
2318.02	0.110042
2327.66	0.110251
2337.3	0.110944
2346.94	0.110712
2356.59	0.112012
2366.23	0.11232
2375.87	0.112563
2385.51	0.113294
2395.16	0.114555
2404.8	0.114266
2414.44	0.115106
2424.08	0.116387
2433.72	0.116425
2443.37	0.118021
2453.01	0.118071
2462.65	0.118203
2472.29	0.119785
2481.94	0.119628
2491.58	0.120274
2501.22	0.121398
2510.86	0.121815
2520.51	0.121249
2530.15	0.122896
2539.79	0.122603
2549.43	0.123816
2559.07	0.123954
2568.72	0.125774
2578.36	0.125131
2588	0.126686
2597.64	0.127196
2607.29	0.126517
2616.93	0.127559
2626.57	0.127523
2636.21	0.128931
2645.86	0.129311
2655.5	0.13012
2665.14	0.129463
2674.78	0.129824
2684.43	0.130685
2694.07	0.131114
2703.71	0.131536
2713.35	0.132496
2722.99	0.132254
2732.64	0.133394
2742.28	0.133553
2751.92	0.134062
2761.56	0.134888
2771.21	0.135807
2780.85	0.136129
2790.49	0.137243
2800.13	0.136675
2809.78	0.137426
2819.42	0.138682
2829.06	0.139325
2838.7	0.140016
2848.34	0.139361
2857.99	0.139828
2867.63	0.140907
2877.27	0.141341
2886.91	0.141844
2896.56	0.142129
2906.2	0.143356
2915.84	0.143522
2925.48	0.143714
2935.13	0.1433
2944.77	0.144631
2954.41	0.144402
2964.05	0.146762
2973.7	0.145873
2983.34	0.146699
2992.98	0.146574
3002.62	0.147322
3012.26	0.14819
3021.91	0.148049
3031.55	0.14914
3041.19	0.149888
3050.83	0.150221
3060.48	0.15172
3070.12	0.151858
3079.76	0.152426
3089.4	0.15301
3099.05	0.152063
3108.69	0.153889
3118.33	0.153904
3127.97	0.152867
3137.61	0.154322
3147.26	0.155709
3156.9	0.155065
3166.54	0.156354
3176.18	0.15649
3185.83	0.156125
3195.47	0.157373
3205.11	0.158245
3214.75	0.157979
3224.4	0.158584
3234.04	0.158958
3243.68	0.159383
3253.32	0.158005
3262.97	0.16108
3272.61	0.16104
3282.25	0.160266
3291.89	0.160147
3301.53	0.160311
3311.18	0.160264
3320.82	0.161795
3330.46	0.161506
3340.1	0.162116
3349.75	0.162001
3359.39	0.162677
3369.03	0.162183
3378.67	0.164126
3388.32	0.164807
3397.96	0.163503
3407.6	0.165407
3417.24	0.164581
3426.89	0.165291
3436.53	0.164571
3446.17	0.165478
3455.81	0.167285
3465.45	0.166889
3475.1	0.16734
3484.74	0.168363
3494.38	0.168687
3504.02	0.169755
3513.67	0.169778
3523.31	0.170654
3532.95	0.170376
3542.59	0.171939
3552.24	0.172152
3561.88	0.176126
3571.52	0.173365
3581.16	0.169055
3590.8	0.170908
3600.45	0.170565
3610.09	0.170458
3619.73	0.173068
3629.37	0.171146
3639.02	0.172793
3648.66	0.173326
3658.3	0.173193
3667.94	0.173102
3677.59	0.174686
3687.23	0.1738
3696.87	0.176645
3706.51	0.174489
3716.16	0.176412
3725.8	0.177153
3735.44	0.177612
3745.08	0.175711
3754.72	0.17903
3764.37	0.180181
3774.01	0.179729
3783.65	0.17954
3793.29	0.179755
3802.94	0.181634
3812.58	0.183829
3822.22	0.179487
3831.86	0.181199
3841.51	0.182545
3851.15	0.180014
3860.79	0.182867
3870.43	0.183125
3880.07	0.18326
3889.72	0.182811
3899.36	0.184037
3909	0.185593
3918.64	0.184027
3928.29	0.183984
3937.93	0.187845
3947.57	0.185037
3957.21	0.186407
3966.86	0.188464
3976.5	0.189447
3986.14	0.186962
3995.78	0.189545
