Measurement: Infrared, Infrared Data Processed
Mineral: Pyrope
Rruff sample: R050112
Ideal chemistry: Mg_3_Al_2_(SiO_4_)_3_
Locality: Cruzeiro mine, San Jose, Minas Gerais, Brazil
Source: Carlos and Paulo Vasconcelos
Description: Dark red crystal fragment
Measured chemistry: (Mg_1.49_Fe^2+^_1.18_Ca_0.29_Mn_0.04_)_Σ=3_(Al_1.99_Fe^3+^_0.01_)_Σ=2_(Si_1.00_O_4_)_3_
x	intensity
374.123	0.24563
383.765	0.203316
393.407	0.143855
403.05	0.124634
412.692	0.152026
422.334	0.172424
431.976	0.194228
441.619	0.205849
451.261	0.212205
460.904	0.198501
470.546	0.187523
480.188	0.188245
489.83	0.162748
499.473	0.139827
509.115	0.113544
518.758	0.0912247
528.4	0.0933366
538.042	0.071081
547.684	0.0483567
557.327	0.0663815
566.969	0.131202
576.611	0.120796
586.254	0.0803883
595.896	0.0506542
605.538	0.0311364
615.181	0.0224472
624.823	0.0195871
634.466	0.0189821
644.108	0.0210015
653.75	0.019284
663.393	0.015894
673.035	0.0155674
682.677	0.0164994
692.319	0.0181646
701.962	0.0199235
711.604	0.0231239
721.246	0.0265368
730.889	0.0308371
740.531	0.0371577
750.173	0.0454485
759.816	0.053639
769.458	0.0645822
779.101	0.0778366
788.743	0.0930663
798.385	0.110089
808.028	0.127604
817.67	0.145458
827.312	0.163086
836.955	0.179982
846.597	0.1918
856.239	0.198627
865.881	0.197409
875.524	0.185898
885.166	0.16325
894.808	0.17607
904.451	0.164165
914.093	0.133237
923.736	0.0972277
933.378	0.0717081
943.02	0.0822938
952.663	0.144731
962.305	0.175188
971.947	0.158684
981.59	0.129754
991.232	0.103383
1000.87	0.0777203
1010.52	0.0546991
1020.16	0.0374547
1029.8	0.0246522
1039.44	0.0162923
1049.09	0.0119199
1058.73	0.00857781
1068.37	0.00636671
1078.01	0.00515209
1087.65	0.00421732
1097.3	0.00335192
1106.94	0.00325718
1116.58	0.00228289
1126.22	0.00186302
1135.87	0.00173868
1145.51	0.00106518
1155.15	0.000766695
1164.79	0.000469216
1174.44	0.000245527
1184.08	-2.31476e-06
1193.72	-0.000233072
1203.36	-0.000425981
1213.01	-0.000316937
1222.65	-0.000631924
1232.29	-0.000216237
1241.93	-0.000520094
1251.58	-0.000381719
1261.22	-0.000306939
1270.86	-0.000443605
1280.5	-0.000129858
1290.14	-0.000242669
1299.79	-1.89062e-05
1309.43	0.000347764
1319.07	0.00024931
1328.71	0.000715464
1338.36	0.000681052
1348	0.000788325
1357.64	0.00136207
1367.28	0.00116027
1376.92	0.00167104
1386.57	0.00156463
1396.21	0.0021662
1405.85	0.00196802
1415.49	0.00230952
1425.14	0.00238806
1434.78	0.00242669
1444.42	0.00263637
1454.06	0.0025457
1463.71	0.00279368
1473.35	0.00284881
1482.99	0.00265989
1492.63	0.00280994
1502.28	0.00270378
1511.92	0.00281309
1521.56	0.00311408
1531.2	0.00289825
1540.85	0.00373082
1550.49	0.00325479
1560.13	0.00389854
1569.77	0.00329281
1579.41	0.00369045
1589.06	0.00331099
1598.7	0.00363619
1608.34	0.00367499
1617.98	0.00413882
1627.63	0.00411689
1637.27	0.00407433
1646.91	0.00436362
1656.55	0.00392223
1666.19	0.00402567
1675.84	0.0042213
1685.48	0.00458786
1695.12	0.00477385
1704.77	0.00412414
1714.41	0.00417562
1724.05	0.00388121
1733.69	0.0038804
1743.33	0.00348132
1752.98	0.00430251
1762.62	0.00469
1772.26	0.00478927
1781.9	0.00448526
1791.55	0.00485859
1801.19	0.00460212
1810.83	0.00463007
1820.47	0.00468683
1830.12	0.00466779
1839.76	0.0051162
1849.4	0.00476943
1859.04	0.00515979
1868.68	0.00545984
1878.33	0.00542135
1887.97	0.00578969
1897.61	0.00462279
1907.25	0.00380402
1916.9	0.00417625
1926.54	0.00381395
1936.18	0.00312237
1945.82	0.00406485
1955.46	0.00466508
1965.11	0.00354776
1974.75	0.00374942
1984.39	0.00511592
1994.04	0.00321566
2003.68	0.00464513
2013.32	0.00551474
2022.96	0.00546332
2032.6	0.0063986
2042.25	0.00758857
2051.89	0.00547898
2061.53	0.00620919
2071.17	0.00572328
2080.82	0.0060568
2090.46	0.00519087
2100.1	0.00621662
2109.74	0.00619196
2119.39	0.00519539
2129.03	0.00519413
2138.67	0.00496521
2148.31	0.00647989
2157.95	0.00782664
2167.6	0.00886601
2177.24	0.00948122
2186.88	0.00989794
2196.52	0.00861125
2206.17	0.00793265
2215.81	0.008159
2225.45	0.00811947
2235.09	0.00758589
2244.74	0.00731215
2254.38	0.00689692
2264.02	0.00745214
2273.66	0.00798515
2283.3	0.00782051
2292.95	0.00790048
2302.59	0.00670042
2312.23	0.0069558
2321.87	0.00793121
2331.52	0.00784409
2341.16	0.00721155
2350.8	0.00692533
2360.44	0.00840726
2370.09	0.00751011
2379.73	0.00697799
2389.37	0.00670279
2399.01	0.00711585
2408.66	0.00760741
2418.3	0.00779227
2427.94	0.00707879
2437.58	0.00715374
2447.22	0.00778917
2456.87	0.00846585
2466.51	0.0078466
2476.15	0.00686853
2485.79	0.00797773
2495.44	0.00828176
2505.08	0.007695
2514.72	0.00750663
2524.36	0.00778692
2534.01	0.00820816
2543.65	0.00715899
2553.29	0.00786993
2562.93	0.00714361
2572.57	0.00788285
2582.22	0.00749233
2591.86	0.0073328
2601.5	0.0077511
2611.14	0.0072079
2620.79	0.00744095
2630.43	0.00697593
2640.07	0.00689562
2649.71	0.0069103
2659.36	0.00674718
2669	0.00713756
2678.64	0.00663658
2688.28	0.00658128
2697.93	0.007056
2707.57	0.0065934
2717.21	0.00676963
2726.85	0.0073931
2736.49	0.0066994
2746.14	0.00725779
2755.78	0.00714365
2765.42	0.00776103
2775.06	0.00754713
2784.71	0.00750075
2794.35	0.00760889
2803.99	0.00724554
2813.63	0.00759536
2823.28	0.00757329
2832.92	0.0073166
2842.56	0.00773543
2852.2	0.00778545
2861.84	0.00736308
2871.49	0.00716356
2881.13	0.00712224
2890.77	0.00732256
2900.41	0.0073987
2910.06	0.00735415
2919.7	0.00708536
2929.34	0.00698989
2938.98	0.00658174
2948.62	0.00602985
2958.27	0.00697041
2967.91	0.00681596
2977.55	0.00607304
2987.2	0.00602608
2996.84	0.00614071
3006.48	0.00624785
3016.12	0.00722801
3025.76	0.00608949
3035.41	0.00687259
3045.05	0.00657164
3054.69	0.00706298
3064.33	0.00692614
3073.98	0.00704623
3083.62	0.00690657
3093.26	0.007045
3102.9	0.00579901
3112.55	0.00679618
3122.19	0.00697393
3131.83	0.00660823
3141.47	0.00692483
3151.11	0.0077298
3160.76	0.00594416
3170.4	0.00715944
3180.04	0.00667407
3189.68	0.00676833
3199.33	0.00675705
3208.97	0.00574749
3218.61	0.00625948
3228.25	0.00635581
3237.9	0.00600831
3247.54	0.00633757
3257.18	0.00594417
3266.82	0.00556789
3276.47	0.0054312
3286.11	0.00630861
3295.75	0.00511298
3305.39	0.00541484
3315.03	0.00503763
3324.68	0.00564792
3334.32	0.00588902
3343.96	0.0049156
3353.6	0.00590702
3363.25	0.00540201
3372.89	0.0054074
3382.53	0.00476325
3392.17	0.00562267
3401.82	0.00585365
3411.46	0.00437255
3421.1	0.005374
3430.74	0.00449885
3440.39	0.00477644
3450.03	0.0046747
3459.67	0.00439744
3469.31	0.00343293
3478.95	0.00441085
3488.6	0.00475154
3498.24	0.00384975
3507.88	0.00433551
3517.52	0.00385882
3527.17	0.00359772
3536.81	0.00438736
3546.45	0.00326643
3556.09	0.00390184
3565.74	0.00414459
3575.38	0.00279857
3585.02	0.00350588
3594.66	0.00368913
3604.3	0.00294983
3613.95	0.00351257
3623.59	0.00320934
3633.23	0.0032326
3642.87	0.0014642
3652.52	0.00430068
3662.16	0.00262777
3671.8	0.00226061
3681.44	0.00131525
3691.09	0.00293215
3700.73	0.00181408
3710.37	0.00234961
3720.01	0.00327708
3729.66	0.00124541
3739.3	0.00213046
3748.94	0.00369544
3758.58	0.00171391
3768.22	0.00265873
3777.87	0.000886611
3787.51	0.00172697
3797.15	0.00132927
3806.79	0.00192985
3816.44	0.00272505
3826.08	0.00169773
3835.72	0.00285695
3845.36	0.00188116
3855.01	0.00117708
3864.65	0.00335587
3874.29	0.00213064
3883.93	0.00196071
3893.57	0.00139324
3903.22	0.00188331
3912.86	0.00237358
3922.5	-0.000449501
3932.14	0.0015583
3941.79	0.00240225
3951.43	0.00253885
3961.07	0.000682879
3970.71	0.00247995
3980.36	0.00152117
3990	0.00117861
3999.64	0.00141925
