Measurement: Infrared, Infrared Data Processed
Mineral: Pyrope
Rruff sample: R050113
Ideal chemistry: Mg_3_Al_2_(SiO_4_)_3_
Locality: Warsik, Pakistan
Source: Farooq and Nazia Sawal
Description: Reddish-purple fragment
Measured chemistry: (Mg_1.83_Fe^2+^_1.12_Ca_0.03_Mn_0.02_)_Σ=3_(Al_1.82_Fe^3+^_0.18_)_Σ=2_((Si_0.99_Al_0.01_)_Σ=1_O_4_)_3_
x	intensity
50.1401	0.0141365
52.0686	0.0154127
53.9971	0.0152763
55.9255	0.0154125
57.854	0.0214181
59.7825	0.0269789
61.7109	0.0238904
63.6394	0.0248579
65.5679	0.0239802
67.4963	0.0239669
69.4248	0.0272438
71.3533	0.031543
73.2817	0.0316502
75.2102	0.0312598
77.1387	0.0334015
79.0671	0.0367286
80.9956	0.036346
82.9241	0.0372739
84.8525	0.0393087
86.781	0.038919
88.7095	0.0385835
90.6379	0.0396806
92.5664	0.0409717
94.4948	0.0427056
96.4233	0.0445135
98.3518	0.0459713
100.28	0.0458557
102.209	0.0476425
104.137	0.0486706
106.066	0.0502546
107.994	0.049667
109.923	0.0485643
111.851	0.0473797
113.779	0.0459189
115.708	0.0448157
117.636	0.0454861
119.565	0.0479386
121.493	0.0509455
123.422	0.051775
125.35	0.0535746
127.279	0.0554148
129.207	0.0561475
131.136	0.0550662
133.064	0.0545797
134.993	0.0540066
136.921	0.0523079
138.85	0.049494
140.778	0.0455734
142.707	0.0411066
144.635	0.0363004
146.563	0.0309506
148.492	0.0279473
150.42	0.029159
152.349	0.034104
154.277	0.0395978
156.206	0.0442644
158.134	0.0459699
160.063	0.0431576
161.991	0.0379738
163.92	0.0342831
165.848	0.0342878
167.777	0.0372331
169.705	0.0411138
171.633	0.0447728
173.562	0.0479764
175.49	0.0511668
177.419	0.0539591
179.347	0.0561548
181.276	0.0582332
183.204	0.0606052
185.133	0.0624982
187.061	0.0638987
188.99	0.0653556
190.918	0.0669919
192.847	0.0681123
194.775	0.0691441
196.704	0.0691746
198.632	0.0676905
200.56	0.0642684
202.489	0.0581353
204.417	0.050415
206.346	0.0439403
208.274	0.038636
210.203	0.0357708
212.131	0.0355593
214.06	0.0378237
215.988	0.0409619
217.917	0.0445432
219.845	0.0480058
221.774	0.0512956
223.702	0.0543794
225.631	0.0568144
227.559	0.0592765
229.488	0.0617238
231.416	0.0636474
233.344	0.0650222
235.273	0.0656383
237.201	0.0657671
239.13	0.0639627
241.058	0.0598352
242.987	0.0543644
244.915	0.0500481
246.844	0.0485286
248.772	0.0497149
250.701	0.0518747
252.629	0.0542288
254.558	0.0566996
256.486	0.0591142
258.414	0.0615312
260.343	0.063593
262.271	0.0649786
264.2	0.0664382
266.128	0.0675325
268.057	0.0686439
269.985	0.0700539
271.914	0.0713625
273.842	0.0719055
275.771	0.0728346
277.699	0.0740365
279.628	0.074988
281.556	0.0759224
283.485	0.0769517
285.413	0.0777624
287.341	0.0786163
289.27	0.0797608
291.198	0.0809952
293.127	0.0822038
295.055	0.0833844
296.984	0.0842292
298.912	0.0849644
300.841	0.0860178
302.769	0.0873321
304.698	0.0883196
306.626	0.0890065
308.555	0.0894158
310.483	0.0899147
312.411	0.0894664
314.34	0.0880096
316.269	0.0852948
318.197	0.0811852
320.125	0.0770526
322.054	0.0750831
323.982	0.075874
325.911	0.0785005
327.839	0.0812435
329.768	0.0840474
331.696	0.0862904
333.625	0.0881054
335.553	0.0895023
337.482	0.0910545
339.41	0.0919765
341.339	0.0916223
343.267	0.0903029
345.195	0.088149
347.124	0.0859441
349.052	0.0852478
350.981	0.086714
352.909	0.0887458
354.838	0.0909675
356.766	0.0934197
358.695	0.0954489
360.623	0.0973211
362.552	0.0990124
364.48	0.100306
366.409	0.101305
368.337	0.101594
370.265	0.101582
372.194	0.101026
374.122	0.0999431
376.051	0.0992626
377.979	0.0981362
379.908	0.0954511
381.836	0.0916844
383.765	0.0870482
385.693	0.0818716
387.622	0.0765668
389.55	0.0714833
391.479	0.0674087
393.407	0.0649358
395.336	0.0644865
397.264	0.066014
399.192	0.0690333
401.121	0.0728113
403.049	0.0766181
404.978	0.0803078
406.906	0.0838835
408.835	0.0869147
410.763	0.0892991
412.692	0.0913041
414.62	0.0935884
416.549	0.0960328
418.477	0.0980597
420.406	0.0999561
422.334	0.102085
424.262	0.103885
426.191	0.10557
428.12	0.107102
430.048	0.108258
431.976	0.109236
433.905	0.110172
435.833	0.110648
437.762	0.11058
439.69	0.110285
441.619	0.109812
443.547	0.109495
445.476	0.109402
447.404	0.109071
449.333	0.108212
451.261	0.106741
453.19	0.104162
455.118	0.101159
457.046	0.100095
458.975	0.101844
460.903	0.104591
462.832	0.106418
464.76	0.107453
466.689	0.107538
468.617	0.107073
470.546	0.105931
472.474	0.104204
474.403	0.102064
476.331	0.100351
478.26	0.0986911
480.188	0.0969623
482.116	0.095258
484.045	0.0934612
485.974	0.0914183
487.902	0.0895414
489.83	0.0876497
491.759	0.0860631
493.687	0.0844424
495.616	0.0826306
497.544	0.0808891
499.473	0.0785751
501.401	0.0757988
503.33	0.0734311
505.258	0.0709592
507.187	0.0680298
509.115	0.0646475
511.043	0.0614495
512.972	0.0584764
514.9	0.0561411
516.829	0.0551851
518.757	0.0558619
520.686	0.0570739
522.614	0.0580163
524.543	0.0577782
526.471	0.0560407
528.4	0.0530561
530.328	0.0494575
532.257	0.0456662
534.185	0.0423582
536.114	0.0405565
538.042	0.0401666
539.971	0.0407786
541.899	0.0425323
543.827	0.0458786
545.756	0.0506704
547.684	0.0566776
549.613	0.0639571
551.541	0.0726798
553.47	0.0805297
555.398	0.0868478
557.327	0.0916493
559.255	0.0945761
561.184	0.0955019
563.112	0.0945537
565.041	0.0919156
566.969	0.088665
568.898	0.0848848
570.826	0.0811075
572.755	0.0769749
574.683	0.0726489
576.611	0.0685733
578.54	0.0645046
580.468	0.0605972
582.397	0.0565749
584.325	0.0523362
586.254	0.0487303
588.182	0.0454685
590.111	0.0422095
592.039	0.0392394
593.968	0.0366653
595.896	0.0343055
597.824	0.0326223
599.753	0.0314941
601.682	0.0301726
603.61	0.0293431
605.538	0.0292372
607.467	0.0285569
609.395	0.0278245
611.324	0.0278234
613.252	0.0282368
615.181	0.0288676
617.109	0.0297413
619.038	0.0312117
620.966	0.0331222
622.894	0.0354368
624.823	0.0381757
626.751	0.0423161
628.68	0.0477238
630.608	0.0512456
632.537	0.0516016
634.465	0.0495088
636.394	0.0458364
638.322	0.0422341
640.251	0.0393868
642.179	0.0373609
644.108	0.0365561
646.036	0.0361585
647.965	0.0354185
649.893	0.034986
651.822	0.0349318
653.75	0.0350025
655.678	0.0356352
657.607	0.0358687
659.535	0.0358008
661.464	0.0354722
663.392	0.0353227
665.321	0.0358615
667.249	0.0367087
669.178	0.0369693
671.106	0.0370615
673.035	0.0373976
674.963	0.0379597
676.892	0.0386282
678.82	0.039498
680.749	0.0399126
682.677	0.0398679
684.606	0.0401161
686.534	0.0408388
688.462	0.0419686
690.391	0.0427104
692.319	0.0432553
694.248	0.0435514
696.176	0.0440653
698.105	0.0438082
700.033	0.0433678
