Measurement: Infrared, Infrared Data Processed
Mineral: Quartz
Rruff sample: R050125
Ideal chemistry: SiO_2_
Locality: Linopolis, Minas Gerais, Brazil
Source: Carlos and Paulo Vasconcelos
Description: Pale pink group of single crystals, variety rose quartz
Measured chemistry: Si_1.00_O_2_
x	intensity
50.1401	0.0154723
52.0686	0.00658389
53.9971	0.00526641
55.9255	0.00780295
57.854	0.00637693
59.7825	0.00676471
61.7109	0.00507698
63.6394	0.00655491
65.5679	0.00793226
67.4963	0.00839782
69.4248	0.00646976
71.3533	0.0058467
73.2817	0.00607337
75.2102	0.00614226
77.1387	0.00618265
79.0671	0.00629355
80.9956	0.00712814
82.9241	0.00784494
84.8525	0.00718585
86.781	0.00695224
88.7095	0.00721277
90.6379	0.00681236
92.5664	0.00685923
94.4948	0.00701753
96.4233	0.00681596
98.3518	0.00693547
100.28	0.00743486
102.209	0.0073152
104.137	0.00786726
106.066	0.00816551
107.994	0.00790425
109.923	0.00791603
111.851	0.00850077
113.779	0.00891244
115.708	0.00866474
117.636	0.0087713
119.565	0.00918995
121.493	0.00965519
123.422	0.010074
125.35	0.010428
127.279	0.0106182
129.207	0.0107953
131.136	0.01118
133.064	0.0117505
134.993	0.0118754
136.921	0.0124414
138.85	0.013064
140.778	0.0129796
142.707	0.0131279
144.635	0.012981
146.563	0.0125554
148.492	0.0129201
150.42	0.0136828
152.349	0.014048
154.277	0.0142288
156.206	0.0146829
158.134	0.0148037
160.063	0.0147456
161.991	0.0147066
163.92	0.0148655
165.848	0.0152473
167.777	0.0154977
169.705	0.0157923
171.633	0.0158627
173.562	0.0161624
175.49	0.0162032
177.419	0.0160563
179.347	0.016191
181.276	0.0165319
183.204	0.0169162
185.133	0.0173085
187.061	0.0175562
188.99	0.0179451
190.918	0.0179666
192.847	0.0180718
194.775	0.0183168
196.704	0.0181594
198.632	0.0181381
200.56	0.0183353
202.489	0.0185484
204.417	0.0182401
206.346	0.0181166
208.274	0.0184831
210.203	0.018771
212.131	0.0188813
214.06	0.0193523
215.988	0.0197045
217.917	0.0199237
219.845	0.0201265
221.774	0.0204105
223.702	0.0206635
225.631	0.0210344
227.559	0.02126
229.488	0.0212669
231.416	0.0215158
233.344	0.0213453
235.273	0.0213853
237.201	0.0218286
239.13	0.0221452
241.058	0.0223741
242.987	0.0226471
244.915	0.0227752
246.844	0.0229937
248.772	0.0232008
250.701	0.0232405
252.629	0.0236859
254.558	0.0242814
256.486	0.0245617
258.414	0.0256043
260.343	0.0272955
262.271	0.0281378
264.2	0.0266175
266.128	0.0239917
268.057	0.0225168
269.985	0.0225792
271.914	0.0232848
273.842	0.0238341
275.771	0.0244958
277.699	0.0252275
279.628	0.0254146
281.556	0.0255663
283.485	0.0256961
285.413	0.0256769
287.341	0.0260771
289.27	0.0267483
291.198	0.0271554
293.127	0.0275259
295.055	0.0278468
296.984	0.0279306
298.912	0.0281185
300.841	0.0288366
302.769	0.029573
304.698	0.0295354
306.626	0.0298102
308.555	0.0303453
310.483	0.0307821
312.411	0.0312096
314.34	0.0317555
316.269	0.0322665
318.197	0.0324534
320.125	0.0327341
322.054	0.0334
323.982	0.0337287
325.911	0.0339983
327.839	0.0344723
329.768	0.03512
331.696	0.0356486
333.625	0.0360724
335.553	0.036655
337.482	0.0373613
339.41	0.0379607
341.339	0.0381946
343.267	0.0387249
345.195	0.0397819
347.124	0.0402967
349.052	0.0406207
350.981	0.0416832
352.909	0.0426455
354.838	0.0433207
356.766	0.044016
358.695	0.0445239
360.623	0.0452327
362.552	0.046094
364.48	0.0467914
366.409	0.0472699
368.337	0.0471376
370.265	0.046796
372.194	0.0463658
374.122	0.0456435
376.051	0.0442114
377.979	0.0419743
379.908	0.0398745
381.836	0.0384991
383.765	0.0377688
385.693	0.037616
387.622	0.0385133
389.55	0.0403259
391.479	0.0423411
393.407	0.0440179
395.336	0.0445642
397.264	0.0428366
399.192	0.0383532
401.121	0.0322202
403.049	0.0267719
404.978	0.0242087
406.906	0.0242443
408.835	0.0257835
410.763	0.0280296
412.692	0.0301549
414.62	0.0321992
416.549	0.034213
418.477	0.0360475
420.406	0.0374578
422.334	0.0388424
424.262	0.0401963
426.191	0.0413578
428.12	0.0424546
430.048	0.0435591
431.976	0.0447166
433.905	0.0458294
435.833	0.0467576
437.762	0.0475748
439.69	0.0484641
441.619	0.0493214
443.547	0.0500511
445.476	0.050987
447.404	0.0518624
449.333	0.0523312
451.261	0.0528619
453.19	0.0536032
455.118	0.0542049
457.046	0.0544881
458.975	0.0545537
460.903	0.0542086
462.832	0.0538652
464.76	0.0534449
466.689	0.0527459
468.617	0.0518338
470.546	0.0506635
472.474	0.0496603
474.403	0.048855
476.331	0.0481543
478.26	0.0472177
480.188	0.0460359
482.116	0.0449927
484.045	0.0438713
485.974	0.0425048
487.902	0.0410756
489.83	0.0398219
491.759	0.0387011
493.687	0.0379017
495.616	0.0368944
497.544	0.0356203
499.473	0.0344909
501.401	0.0332346
503.33	0.0323976
505.258	0.0318136
507.187	0.030922
509.115	0.0300755
511.043	0.0297906
512.972	0.02954
514.9	0.029299
516.829	0.0292838
518.757	0.0292902
520.686	0.0289054
522.614	0.0283873
524.543	0.0277763
526.471	0.0269896
528.4	0.0264678
530.328	0.0258036
532.257	0.0245736
534.185	0.0231089
536.114	0.0219892
538.042	0.0211779
539.971	0.0203307
541.899	0.0195607
543.827	0.0188481
545.756	0.0180982
547.684	0.0174826
549.613	0.0168939
551.541	0.0171678
553.47	0.0172818
555.398	0.0170345
557.327	0.017247
559.255	0.0176362
561.184	0.0178185
563.112	0.0177943
565.041	0.0178729
566.969	0.0181555
568.898	0.0184817
570.826	0.0187875
572.755	0.0189156
574.683	0.0188712
576.611	0.0190832
578.54	0.0193706
580.468	0.0191727
582.397	0.0185916
584.325	0.0179509
586.254	0.0179537
588.182	0.0178988
590.111	0.017345
592.039	0.0170787
593.968	0.0172458
595.896	0.0170973
597.824	0.0171717
599.753	0.0173512
601.682	0.0174356
603.61	0.0179016
605.538	0.0185575
607.467	0.0185849
609.395	0.0186934
611.324	0.0188432
613.252	0.0189454
615.181	0.0191488
617.109	0.019986
619.038	0.0206512
620.966	0.0210866
622.894	0.0215677
624.823	0.0219455
626.751	0.0228207
628.68	0.0242308
630.608	0.0254708
632.537	0.0259937
634.465	0.0265048
636.394	0.0269243
638.322	0.0270737
640.251	0.0271915
642.179	0.0271918
644.108	0.0276003
646.036	0.0279316
647.965	0.0278096
649.893	0.0279311
651.822	0.0282073
653.75	0.0283548
655.678	0.0288926
657.607	0.0295085
659.535	0.0298318
661.464	0.030094
663.392	0.0301277
665.321	0.030359
667.249	0.0310848
669.178	0.0311617
671.106	0.0311406
673.035	0.0312069
674.963	0.0316066
676.892	0.032277
678.82	0.0327565
680.749	0.0329642
682.677	0.0329948
684.606	0.0337992
686.534	0.0359348
688.462	0.0380192
690.391	0.0394196
692.319	0.0415796
694.248	0.0430967
696.176	0.0424486
698.105	0.0404094
700.033	0.0375685
