Measurement: Infrared, Infrared Data Processed
Mineral: Rhodochrosite
Rruff sample: R040133
Ideal chemistry: Mn^2+^CO_3_
Locality: Imuris, Sonora, Mexico
Source: University of Arizona Mineral Museum
Description: Pink cleavage fragment
Measured chemistry: (Mn_0.92_Mg_0.02_Ca_0.01_)C_1.02_O_3_
x	intensity
399.193	0
408.835	0.0203031
418.477	0.0153397
428.12	0.0162441
437.762	0.011762
447.404	0.0122597
457.047	0.0124946
466.689	0.0136105
476.331	0.010218
485.974	0.0134556
495.616	0.0116615
505.258	0.0110837
514.901	0.0115677
524.543	0.0107739
534.185	0.010553
543.828	0.00950072
553.47	0.00970936
563.112	0.0120569
572.755	0.0124826
582.397	0.0135202
592.039	0.0138046
601.682	0.0149409
611.324	0.0142125
620.966	0.0149914
630.609	0.0163228
640.251	0.0173514
649.893	0.0172472
659.536	0.0191665
669.178	0.0208214
678.82	0.021795
688.463	0.0229459
698.105	0.0275481
707.747	0.0323704
717.39	0.0574783
727.032	0.161708
736.674	0.0189189
746.317	0.0183644
755.959	0.0200325
765.601	0.0207404
775.244	0.022689
784.886	0.0258198
794.528	0.027656
804.171	0.0296375
813.813	0.0338028
823.455	0.0396666
833.098	0.0565302
842.74	0.0779267
852.382	0.178324
862.025	0.319873
871.667	0.146921
881.309	0.029901
890.952	0.0278424
900.594	0.0298275
910.236	0.0308053
919.879	0.0320684
929.521	0.0338939
939.163	0.034749
948.806	0.0367323
958.448	0.0375596
968.09	0.0389925
977.733	0.0416335
987.375	0.0427355
997.017	0.0443474
1006.66	0.0476142
1016.3	0.0490006
1025.94	0.0520454
1035.59	0.0549309
1045.23	0.0588314
1054.87	0.0638907
1064.51	0.0678288
1074.16	0.0734571
1083.8	0.0782027
1093.44	0.0796123
1103.08	0.0811409
1112.72	0.0838652
1122.37	0.0850879
1132.01	0.0872387
1141.65	0.0923543
1151.3	0.0965661
1160.94	0.100649
1170.58	0.102389
1180.22	0.10766
1189.86	0.113388
1199.51	0.118546
1209.15	0.122997
1218.79	0.130151
1228.43	0.137526
1238.08	0.146619
1247.72	0.158302
1257.36	0.170037
1267	0.182075
1276.64	0.196796
1286.29	0.21299
1295.93	0.233875
1305.57	0.255562
1315.21	0.279804
1324.86	0.309522
1334.5	0.342476
1344.14	0.372066
1353.78	0.411529
1363.43	0.458116
1373.07	0.503309
1382.71	0.540457
1392.35	0.560405
1401.99	0.558058
1411.64	0.516023
1421.28	0.476585
1430.92	0.435767
1440.57	0.392471
1450.21	0.350255
1459.85	0.311013
1469.49	0.273447
1479.13	0.241792
1488.78	0.209638
1498.42	0.178141
1508.06	0.147933
1517.7	0.120047
1527.35	0.0943471
1536.99	0.0701767
1546.63	0.0447785
1556.27	0.0267884
1565.91	0.0223789
1575.56	0.0241273
1585.2	0.0242811
1594.84	0.0213866
1604.48	0.0163777
1614.13	0.0154024
1623.77	0.0132363
1633.41	0.0112216
1643.05	0.00985592
1652.7	0.0101811
1662.34	0.0090229
1671.98	0.00790506
1681.62	0.00756557
1691.27	0.00765657
1700.91	0.00608965
1710.55	0.00502743
1720.19	0.00690939
1729.84	0.00612151
1739.48	0.00614569
1749.12	0.00708126
1758.76	0.00711389
1768.4	0.00766761
1778.05	0.00790705
1787.69	0.00935458
1797.33	0.0200877
1806.97	0.0178795
1816.62	0.00833153
1826.26	0.00627576
1835.9	0.00621154
1845.54	0.00757342
1855.18	0.00656999
1864.83	0.00594713
1874.47	0.00460145
1884.11	0.00646193
1893.76	0.0051909
1903.4	0.00634374
1913.04	0.00352422
1922.68	0.00756211
1932.32	0.00466885
1941.97	0.00581642
1951.61	0.00694784
1961.25	0.00688429
1970.89	0.00100699
1980.54	0.00677325
1990.18	0.00167782
1999.82	0.00233131
2009.46	0.00641643
2019.11	0.00564054
2028.75	0.00491183
2038.39	0.00609685
2048.03	0.00614674
2057.67	0.00954307
2067.32	0.00396033
2076.96	0.00798086
2086.6	0.0072155
2096.24	0.00631661
2105.89	0.00953777
2115.53	0.00623639
2125.17	0.00726356
2134.81	0.00834356
2144.45	0.00328916
2154.1	-0.00144777
2163.74	0.00793626
2173.38	0.00296351
2183.02	0.00911751
2192.67	0.00885957
2202.31	0.00771507
2211.95	0.0053035
2221.59	0.00320331
2231.24	0.0102395
2240.88	0.0109605
2250.52	0.00841445
2260.16	0.0051293
2269.8	0.00765603
2279.45	0.0122356
2289.09	0.0107016
2298.73	0.011709
2308.38	0.0130407
2318.02	0.0106517
2327.66	0.0111579
2337.3	0.00932056
2346.94	0.0122922
2356.59	0.0102416
2366.23	0.00807877
2375.87	0.0106007
2385.51	0.0128177
2395.16	0.0159937
2404.8	0.013757
2414.44	0.0110676
2424.08	0.0134378
2433.72	0.012573
2443.37	0.013033
2453.01	0.0129483
2462.65	0.0154595
2472.3	0.0180127
2481.94	0.0233894
2491.58	0.0277209
2501.22	0.0234701
2510.86	0.0206223
2520.51	0.0148869
2530.15	0.0140418
2539.79	0.0140013
2549.43	0.0122617
2559.08	0.0125924
2568.72	0.0159327
2578.36	0.0178204
2588	0.0145531
2597.64	0.0142249
2607.29	0.0150015
2616.93	0.0157653
2626.57	0.0134433
2636.21	0.0162176
2645.86	0.0135483
2655.5	0.0144471
2665.14	0.0119745
2674.78	0.0148171
2684.43	0.0146018
2694.07	0.015752
2703.71	0.0142595
2713.35	0.0149272
2722.99	0.0145685
2732.64	0.0139426
2742.28	0.0146792
2751.92	0.0149465
2761.57	0.0155717
2771.21	0.0134574
2780.85	0.0167431
2790.49	0.0151627
2800.13	0.0163732
2809.78	0.0187474
2819.42	0.0196056
2829.06	0.0192112
2838.7	0.0212437
2848.35	0.0233754
2857.99	0.0195467
2867.63	0.0201725
2877.27	0.0200367
2886.91	0.020682
2896.56	0.0240197
2906.2	0.0217414
2915.84	0.0204568
2925.48	0.0193244
2935.13	0.0235027
2944.77	0.0229099
2954.41	0.0228498
2964.05	0.0214213
2973.7	0.0216549
2983.34	0.0202686
2992.98	0.0251558
3002.62	0.0189538
3012.26	0.0240811
3021.91	0.0250607
3031.55	0.0239306
3041.19	0.02451
3050.84	0.0271094
3060.48	0.0229954
3070.12	0.022003
3079.76	0.0290153
3089.4	0.0237583
3099.05	0.028174
3108.69	0.0298699
3118.33	0.0243644
3127.97	0.0286074
3137.62	0.0264432
3147.26	0.0270409
3156.9	0.029653
3166.54	0.0301253
3176.18	0.0277691
3185.83	0.0292775
3195.47	0.0278548
3205.11	0.0280016
3214.75	0.029213
3224.4	0.0268231
3234.04	0.0321067
3243.68	0.0296475
3253.32	0.0250129
3262.97	0.0277178
3272.61	0.0255425
3282.25	0.0264996
3291.89	0.030707
3301.53	0.0302988
3311.18	0.0347947
3320.82	0.0317391
3330.46	0.0293882
3340.11	0.039362
3349.75	0.0371954
3359.39	0.0285881
3369.03	0.0302888
3378.67	0.0312568
3388.32	0.041662
3397.96	0.0333719
3407.6	0.0351486
3417.24	0.0364841
3426.89	0.032554
3436.53	0.0309769
3446.17	0.033056
3455.81	0.0297153
3465.45	0.0379094
3475.1	0.0295425
3484.74	0.0304877
3494.38	0.0210263
3504.02	0.0312308
3513.67	0.0215942
3523.31	0.0336199
3532.95	0.0297156
3542.59	0.0318373
3552.24	0.0279159
3561.88	0.0311844
3571.52	0.0262678
3581.16	0.0237977
3590.8	0.0306175
3600.45	0.0284287
3610.09	0.0211029
3619.73	0.0261411
3629.38	0.0320711
3639.02	0.0207892
3648.66	0.0295289
3658.3	0.0254437
3667.94	0.0264102
3677.59	0.0317918
3687.23	0.0312094
3696.87	0.0285682
3706.51	0.0404722
3716.16	0.022163
3725.8	0.0321874
3735.44	0.0227742
3745.08	0.0336655
3754.72	0.0364234
3764.37	0.0314989
3774.01	0.0238385
3783.65	0.0294399
3793.29	0.0258473
3802.94	0.0289194
3812.58	0.0285979
3822.22	0.0243984
3831.86	0.0253554
3841.51	0.0403424
3851.15	0.0329027
3860.79	0.0425465
3870.43	0.0331725
3880.07	0.0270107
3889.72	0.0243377
3899.36	0.0334374
3909	0.0301753
3918.64	0.0315807
3928.29	0.025847
3937.93	0.0307809
3947.57	0.0301165
3957.21	0.0252725
3966.86	0.031547
3976.5	0.034163
3986.14	0.0317722
3995.78	0.0380257
