Measurement: Infrared, Infrared Data Processed
Mineral: Rhodochrosite
Rruff sample: R050116
Ideal chemistry: Mn^2+^CO_3_
Locality: Wudong mine, Liubao, Guangxi Autonomous Region, China
Source: He Xin Jian
Description: Pink crystal associated with colorless quartz
Measured chemistry: (Mn_0.81_Fe_0.17_Mg_0.01_Ca_0.01_)CO_3_
x	intensity
374.123	0.0619935
383.765	0.0443673
393.407	0.0286317
403.05	0.0259558
412.692	0.0208388
422.334	0.0198328
431.976	0.0169524
441.619	0.0190066
451.261	0.019983
460.904	0.0198747
470.546	0.0184052
480.188	0.0196087
489.83	0.0179796
499.473	0.0172024
509.115	0.0154152
518.758	0.0142487
528.4	0.0146216
538.042	0.0146593
547.684	0.013172
557.327	0.0126175
566.969	0.0152509
576.611	0.0174229
586.254	0.0170171
595.896	0.0170481
605.538	0.0164864
615.181	0.0165613
624.823	0.0166946
634.466	0.0172192
644.108	0.0185441
653.75	0.0196268
663.393	0.0199486
673.035	0.0213182
682.677	0.0227336
692.319	0.0252501
701.962	0.0293523
711.604	0.0390991
721.246	0.0889887
730.889	0.101909
740.531	0.0199236
750.173	0.0187148
759.816	0.0198816
769.458	0.0217304
779.101	0.0236972
788.743	0.0257948
798.385	0.0280572
808.028	0.0314957
817.67	0.0373714
827.312	0.0483912
836.955	0.0898519
846.597	0.13446
856.239	0.31711
865.881	0.292077
875.524	0.0816034
885.166	0.037606
894.808	0.0388664
904.451	0.0408329
914.093	0.0403204
923.736	0.0399326
933.378	0.0395044
943.02	0.04078
952.663	0.0443815
962.305	0.0508648
971.947	0.0536761
981.59	0.0536442
991.232	0.0540502
1000.87	0.0554428
1010.52	0.0575242
1020.16	0.0593019
1029.8	0.0599514
1039.44	0.0615286
1049.09	0.0643895
1058.73	0.0675952
1068.37	0.0716067
1078.01	0.076034
1087.65	0.0777762
1097.3	0.0780192
1106.94	0.0824041
1116.58	0.0863503
1126.22	0.0911137
1135.87	0.0979561
1145.51	0.105628
1155.15	0.112374
1164.79	0.118103
1174.44	0.123028
1184.08	0.129732
1193.72	0.138077
1203.36	0.145262
1213.01	0.153672
1222.65	0.163913
1232.29	0.175531
1241.93	0.188743
1251.58	0.202987
1261.22	0.217734
1270.86	0.23521
1280.5	0.253693
1290.14	0.273162
1299.79	0.296031
1309.43	0.32056
1319.07	0.347831
1328.71	0.379289
1338.36	0.412906
1348	0.448998
1357.64	0.493109
1367.28	0.538956
1376.92	0.580388
1386.57	0.604349
1396.21	0.615152
1405.85	0.589088
1415.49	0.53794
1425.14	0.491798
1434.78	0.446854
1444.42	0.401861
1454.06	0.357549
1463.71	0.317567
1473.35	0.280772
1482.99	0.245497
1492.63	0.211129
1502.28	0.178744
1511.92	0.147939
1521.56	0.119285
1531.2	0.0919728
1540.85	0.0658325
1550.49	0.0362158
1560.13	0.0220095
1569.77	0.0189874
1579.41	0.0199646
1589.06	0.0195638
1598.7	0.0162506
1608.34	0.0126142
1617.98	0.0114307
1627.63	0.00955978
1637.27	0.00844487
1646.91	0.0074545
1656.55	0.00618498
1666.19	0.00539342
1675.84	0.00494441
1685.48	0.00464693
1695.12	0.00407415
1704.77	0.00332759
1714.41	0.00310941
1724.05	0.00295942
1733.69	0.00320704
1743.33	0.00259335
1752.98	0.00317995
1762.62	0.0039354
1772.26	0.00447416
1781.9	0.00548934
1791.55	0.0111079
1801.19	0.0170087
1810.83	0.0131495
1820.47	0.00559795
1830.12	0.00310094
1839.76	0.00320161
1849.4	0.00265527
1859.04	0.00302808
1868.68	0.00359692
1878.33	0.00326811
1887.97	0.00308637
1897.61	0.00353293
1907.25	0.00390961
1916.9	0.00396511
1926.54	0.00452194
1936.18	0.0040712
1945.82	0.00491784
1955.46	0.00560917
1965.11	0.00491045
1974.75	0.00527057
1984.39	0.00694928
1994.04	0.00559757
2003.68	0.00540021
2013.32	0.00696585
2022.96	0.00507612
2032.6	0.00693754
2042.25	0.00635909
2051.89	0.0067265
2061.53	0.00581653
2071.17	0.00588518
2080.82	0.0070472
2090.46	0.00587361
2100.1	0.00627134
2109.74	0.00629936
2119.39	0.0069051
2129.03	0.00562917
2138.67	0.00493002
2148.31	0.00564779
2157.95	0.00518475
2167.6	0.00880982
2177.24	0.0077167
2186.88	0.00871253
2196.52	0.0077003
2206.17	0.00790545
2215.81	0.00892499
2225.45	0.00892446
2235.09	0.0090378
2244.74	0.00824459
2254.38	0.00871898
2264.02	0.00902666
2273.66	0.00912289
2283.3	0.00972243
2292.95	0.0101676
2302.59	0.00933237
2312.23	0.0107375
2321.87	0.0117489
2331.52	0.0119813
2341.16	0.0119601
2350.8	0.0106968
2360.44	0.0131408
2370.09	0.0116917
2379.73	0.0110306
2389.37	0.0103407
2399.01	0.0114197
2408.66	0.0108757
2418.3	0.0109836
2427.94	0.0114137
2437.58	0.0117614
2447.22	0.0135766
2456.87	0.0142284
2466.51	0.015653
2476.15	0.0183439
2485.79	0.0247232
2495.44	0.0266244
2505.08	0.0229715
2514.72	0.0209484
2524.36	0.0171491
2534.01	0.0154247
2543.65	0.0138571
2553.29	0.0144139
2562.93	0.0134967
2572.57	0.0140216
2582.22	0.0136895
2591.86	0.0132458
2601.5	0.0134369
2611.14	0.0126114
2620.79	0.0120441
2630.43	0.012128
2640.07	0.0118153
2649.71	0.0117487
2659.36	0.0118662
2669	0.0120917
2678.64	0.0118562
2688.28	0.0119474
2697.93	0.0119434
2707.57	0.0117696
2717.21	0.0124284
2726.85	0.0128981
2736.49	0.0121799
2746.14	0.0124633
2755.78	0.012778
2765.42	0.0132218
2775.06	0.0135669
2784.71	0.013436
2794.35	0.0143628
2803.99	0.0154384
2813.63	0.0169232
2823.28	0.0185358
2832.92	0.0196587
2842.56	0.0210002
2852.2	0.021556
2861.84	0.0202257
2871.49	0.0197377
2881.13	0.0190254
2890.77	0.0194776
2900.41	0.0201041
2910.06	0.0203212
2919.7	0.0215483
2929.34	0.0219777
2938.98	0.0203885
2948.62	0.0194659
2958.27	0.0206952
2967.91	0.0204285
2977.55	0.0197472
2987.2	0.0191398
2996.84	0.018722
3006.48	0.0176291
3016.12	0.0185109
3025.76	0.018718
3035.41	0.0190599
3045.05	0.0194298
3054.69	0.0201058
3064.33	0.0204587
3073.98	0.0217878
3083.62	0.0211485
3093.26	0.0222998
3102.9	0.0220995
3112.55	0.0230496
3122.19	0.0236135
3131.83	0.023917
3141.47	0.0241733
3151.11	0.0255576
3160.76	0.0244402
3170.4	0.0252184
3180.04	0.0247698
3189.68	0.0247974
3199.33	0.0255871
3208.97	0.0246019
3218.61	0.0260455
3228.25	0.0263496
3237.9	0.0260149
3247.54	0.0262592
3257.18	0.0255452
3266.82	0.0266228
3276.47	0.0265222
3286.11	0.0265289
3295.75	0.0267222
3305.39	0.0263255
3315.03	0.0266464
3324.68	0.027572
3334.32	0.0273821
3343.96	0.0271084
3353.6	0.0278098
3363.25	0.0276479
3372.89	0.0275142
3382.53	0.0280736
3392.17	0.0278324
3401.82	0.02871
3411.46	0.0281199
3421.1	0.0291715
3430.74	0.0278877
3440.39	0.0289576
3450.03	0.0281666
3459.67	0.0280348
3469.31	0.0268976
3478.95	0.0285216
3488.6	0.0285431
3498.24	0.0282506
3507.88	0.0281831
3517.52	0.0282094
3527.17	0.0288799
3536.81	0.0277457
3546.45	0.0278866
3556.09	0.0280953
3565.74	0.0285195
3575.38	0.0278832
3585.02	0.0293076
3594.66	0.0265862
3604.3	0.026518
3613.95	0.0269185
3623.59	0.0285944
3633.23	0.0284274
3642.87	0.0268052
3652.52	0.028052
3662.16	0.0271331
3671.8	0.029888
3681.44	0.0260395
3691.09	0.0295736
3700.73	0.028391
3710.37	0.0287247
3720.01	0.0283295
3729.66	0.0281415
3739.3	0.0293745
3748.94	0.0300661
3758.58	0.0281825
3768.22	0.0290929
3777.87	0.02853
3787.51	0.028376
3797.15	0.0283337
3806.79	0.0294774
3816.44	0.0309412
3826.08	0.0290048
3835.72	0.029951
3845.36	0.0293938
3855.01	0.0310937
3864.65	0.0317047
3874.29	0.0317957
3883.93	0.0310375
3893.57	0.0318195
3903.22	0.0301431
3912.86	0.0321082
3922.5	0.0292224
3932.14	0.0318213
3941.79	0.0324219
3951.43	0.0319852
3961.07	0.0317965
3970.71	0.0322882
3980.36	0.0333175
3990	0.0321765
3999.64	0.0315797
