Measurement: Infrared, Infrared Data Processed
Mineral: Rhodonite
Rruff sample: R040041
Ideal chemistry: CaMn^2+^_3_Mn^2+^Si_5_O_15_
Locality: Franklin, Sussex County, New Jersey, USA
Source: University of Arizona Mineral Museum
Description: Pink prismatic crystals
Measured chemistry: (Mn_0.63_Ca_0.21_Zn_0.12_Mg_0.02_Fe_0.02_)_Î£=1_Si_1.00_O_3_
x	intensity
399.193	0
408.835	0.209831
418.477	0.229355
428.12	0.26023
437.762	0.303388
447.404	0.295522
457.047	0.258843
466.689	0.201207
476.331	0.163257
485.974	0.173002
495.616	0.161925
505.258	0.150801
514.901	0.147567
524.543	0.111719
534.185	0.114182
543.828	0.113836
553.47	0.143841
563.112	0.173132
572.755	0.185189
582.397	0.178244
592.039	0.157545
601.682	0.170194
611.324	0.181488
620.966	0.179416
630.609	0.177101
640.251	0.201662
649.893	0.198812
659.536	0.203173
669.178	0.195279
678.82	0.166852
688.463	0.162736
698.105	0.154458
707.747	0.148461
717.39	0.150613
727.032	0.142882
736.674	0.126209
746.317	0.1196
755.959	0.116104
765.601	0.114018
775.244	0.111857
784.886	0.110094
794.528	0.108618
804.171	0.109126
813.813	0.110274
823.455	0.112294
833.098	0.116532
842.74	0.122568
852.382	0.13543
862.025	0.164385
871.667	0.188594
881.309	0.189204
890.952	0.241873
900.594	0.243861
910.236	0.211968
919.879	0.213851
929.521	0.187943
939.163	0.205489
948.806	0.205384
958.448	0.166928
968.09	0.129503
977.733	0.108093
987.375	0.126618
997.017	0.149481
1006.66	0.134796
1016.3	0.15022
1025.94	0.165275
1035.59	0.165687
1045.23	0.160914
1054.87	0.175069
1064.51	0.170288
1074.16	0.146326
1083.8	0.131529
1093.44	0.123164
1103.08	0.0967457
1112.72	0.0639882
1122.37	0.0426346
1132.01	0.0300525
1141.65	0.0249182
1151.3	0.0219075
1160.94	0.0196903
1170.58	0.0175415
1180.22	0.0152819
1189.86	0.0136473
1199.51	0.011712
1209.15	0.0101671
1218.79	0.0089693
1228.43	0.00799569
1238.08	0.00744039
1247.72	0.00691191
1257.36	0.00645575
1267	0.00632654
1276.64	0.00624352
1286.29	0.00614721
1295.93	0.00599772
1305.57	0.00608493
1315.21	0.00628986
1324.86	0.00607121
1334.5	0.0063062
1344.14	0.00638156
1353.78	0.00683927
1363.43	0.00737
1373.07	0.00786148
1382.71	0.00789713
1392.35	0.00872158
1401.99	0.00930489
1411.64	0.0104989
1421.28	0.0116639
1430.92	0.0129241
1440.57	0.0137536
1450.21	0.0140585
1459.85	0.0135681
1469.49	0.0120659
1479.13	0.0110882
1488.78	0.00969013
1498.42	0.00887709
1508.06	0.00804435
1517.7	0.0078731
1527.35	0.00803294
1536.99	0.00905384
1546.63	0.00925756
1556.27	0.0104609
1565.91	0.0114154
1575.56	0.0122903
1585.2	0.0121797
1594.84	0.0121131
1604.48	0.011891
1614.13	0.0112698
1623.77	0.0104473
1633.41	0.0103867
1643.05	0.00997032
1652.7	0.00898474
1662.34	0.00879797
1671.98	0.00844483
1681.62	0.00833812
1691.27	0.00793033
1700.91	0.00751017
1710.55	0.00766046
1720.19	0.00753617
1729.84	0.00704572
1739.48	0.00613679
1749.12	0.00651679
1758.76	0.00676348
1768.4	0.00652185
1778.05	0.00680317
1787.69	0.00632441
1797.33	0.0065167
1806.97	0.00627543
1816.62	0.00618961
1826.26	0.00574489
1835.9	0.00569731
1845.54	0.0058341
1855.18	0.00637087
1864.83	0.00578658
1874.47	0.00671052
1884.11	0.00572787
1893.75	0.00592163
1903.4	0.00536131
1913.04	0.00596793
1922.68	0.00514761
1932.32	0.00476118
1941.97	0.00664614
1951.61	0.00517954
1961.25	0.00502647
1970.89	0.00388228
1980.54	0.00601372
1990.18	0.00396134
1999.82	0.00243057
2009.46	0.00140978
2019.11	0.00373758
2028.75	0.00210892
2038.39	0.00491988
2048.03	0.0041921
2057.67	0.00321628
2067.32	0.00496538
2076.96	0.00608267
2086.6	0.00559764
2096.24	0.00508239
2105.89	0.0047339
2115.53	0.00404553
2125.17	0.00289588
2134.81	0.00286353
2144.45	0.00236758
2154.1	-0.000703963
2163.74	0.00398687
2173.38	0.00408933
2183.02	0.00384496
2192.67	0.00682187
2202.31	0.00507954
2211.95	0.00543695
2221.59	0.00784591
2231.24	0.00808728
2240.88	0.00929182
2250.52	0.0104461
2260.16	0.010955
2269.8	0.0112786
2279.45	0.0114145
2289.09	0.0125609
2298.73	0.0118906
2308.38	0.0117561
2318.02	0.0117175
2327.66	0.0111361
2337.3	0.0117008
2346.94	0.0108588
2356.59	0.0121262
2366.23	0.0115283
2375.87	0.0109009
2385.51	0.0108986
2395.16	0.0107424
2404.8	0.0122102
2414.44	0.0118009
2424.08	0.0123198
2433.72	0.0123044
2443.37	0.0111853
2453.01	0.0121761
2462.65	0.0119416
2472.29	0.0119435
2481.94	0.0127772
2491.58	0.0116636
2501.22	0.0117481
2510.86	0.013234
2520.51	0.0124028
2530.15	0.0114696
2539.79	0.0136242
2549.43	0.0143858
2559.07	0.0121266
2568.72	0.013643
2578.36	0.0132876
2588	0.0142214
2597.64	0.0129427
2607.29	0.0129692
2616.93	0.0135899
2626.57	0.0139384
2636.21	0.0138137
2645.86	0.0133696
2655.5	0.013915
2665.14	0.013932
2674.78	0.0139881
2684.43	0.0129262
2694.07	0.0132948
2703.71	0.013695
2713.35	0.0135443
2722.99	0.0148021
2732.64	0.0147069
2742.28	0.0141715
2751.92	0.0150488
2761.56	0.0149429
2771.21	0.0149788
2780.85	0.0141945
2790.49	0.0160122
2800.13	0.0158774
2809.78	0.0148419
2819.42	0.0150867
2829.06	0.0157374
2838.7	0.0171206
2848.34	0.0159082
2857.99	0.0157087
2867.63	0.0173918
2877.27	0.0170227
2886.91	0.0169701
2896.56	0.0173481
2906.2	0.0173825
2915.84	0.0186099
2925.48	0.0168291
2935.13	0.0175098
2944.77	0.0189419
2954.41	0.0199572
2964.05	0.0193133
2973.7	0.0180977
2983.34	0.0174918
2992.98	0.0188386
3002.62	0.0176778
3012.26	0.0184124
3021.91	0.0191418
3031.55	0.018953
3041.19	0.0201862
3050.83	0.0189569
3060.48	0.0200057
3070.12	0.0204769
3079.76	0.019685
3089.4	0.0198542
3099.05	0.0195199
3108.69	0.0219201
3118.33	0.0209216
3127.97	0.0211435
3137.61	0.0213879
3147.26	0.02245
3156.9	0.0215117
3166.54	0.0219047
3176.18	0.0223217
3185.83	0.0218633
3195.47	0.0227898
3205.11	0.0232332
3214.75	0.0232361
3224.4	0.0219094
3234.04	0.0228859
3243.68	0.023138
3253.32	0.0243594
3262.97	0.0241419
3272.61	0.0256971
3282.25	0.0238335
3291.89	0.0237861
3301.53	0.0245641
3311.18	0.0234283
3320.82	0.025318
3330.46	0.0252914
3340.1	0.0248882
3349.75	0.0264994
3359.39	0.0255021
3369.03	0.0260393
3378.67	0.025702
3388.32	0.0266215
3397.96	0.0250591
3407.6	0.0271849
3417.24	0.0255519
3426.89	0.0280071
3436.53	0.0251802
3446.17	0.028339
3455.81	0.0262106
3465.45	0.0274122
3475.1	0.0254731
3484.74	0.026912
3494.38	0.0234745
3504.02	0.0261245
3513.67	0.0258978
3523.31	0.0252067
3532.95	0.0264001
3542.59	0.0253652
3552.24	0.0258947
3561.88	0.0257851
3571.52	0.02486
3581.16	0.0253473
3590.8	0.0245328
3600.45	0.024105
3610.09	0.022227
3619.73	0.0218268
3629.37	0.0240691
3639.02	0.0220734
3648.66	0.0236391
3658.3	0.0216539
3667.94	0.0226536
3677.59	0.0194904
3687.23	0.0203004
3696.87	0.0239623
3706.51	0.0199123
3716.16	0.022316
3725.8	0.0201735
3735.44	0.0198695
3745.08	0.0212657
3754.72	0.025317
3764.37	0.0213572
3774.01	0.0217246
3783.65	0.021383
3793.29	0.0234707
3802.94	0.0206534
3812.58	0.0232402
3822.22	0.0202373
3831.86	0.0206393
3841.51	0.0251123
3851.15	0.0241182
3860.79	0.0242242
3870.43	0.0206778
3880.07	0.0236406
3889.72	0.0231622
3899.36	0.0209341
3909	0.0212847
3918.64	0.0229142
3928.29	0.0217351
3937.93	0.0232809
3947.57	0.0225202
3957.21	0.0248349
3966.86	0.0228003
3976.5	0.0254357
3986.14	0.0230979
3995.78	0.0251175
