Measurement: Infrared, Infrared Data Processed
Mineral: Rinkite-(Ce)
Rruff sample: R050229
Ideal chemistry: (Ca_3_Ce^3+^)Na(NaCa)Ti^4+^(Si_2_O_7_)_2_(OF)F_2_
Locality: Kipawa alkaline complex, near Sheffield Lake, Villedieu Township, Temiscamingue County, Quebec, Canada
Source: Marcus Origlieri
Description: Aggregate of coarsely crystalline yellowish-gray crystals associated with red eudialyte R050230
x	intensity
372.194	0
381.836	0.148953
391.479	0.13421
401.121	0.129838
410.763	0.122702
420.406	0.126
430.048	0.126266
439.69	0.128473
449.333	0.130914
458.975	0.133565
468.617	0.134829
478.26	0.132318
487.902	0.128043
497.544	0.120406
507.187	0.111973
516.829	0.103238
526.471	0.0887274
536.114	0.0767567
545.756	0.0699431
555.398	0.0671835
565.041	0.0640061
574.683	0.0597809
584.325	0.0571613
593.968	0.0533955
603.61	0.046918
613.252	0.0430741
622.895	0.0431486
632.537	0.0451196
642.179	0.0487574
651.822	0.0524723
661.464	0.0542224
671.106	0.0525195
680.749	0.0502724
690.391	0.0505005
700.033	0.0520854
709.676	0.0536888
719.318	0.0559828
728.96	0.0595246
738.603	0.0630034
748.245	0.0661762
757.887	0.0683795
767.53	0.071901
777.172	0.0762336
786.814	0.0819522
796.457	0.0900721
806.099	0.10035
815.741	0.113631
825.384	0.128811
835.026	0.145496
844.668	0.161667
854.311	0.174307
863.953	0.180542
873.595	0.177035
883.238	0.170448
892.88	0.168516
902.522	0.172116
912.165	0.175574
921.807	0.175768
931.449	0.175164
941.092	0.175501
950.734	0.176025
960.376	0.173913
970.019	0.168288
979.661	0.158513
989.303	0.146541
998.946	0.135124
1008.59	0.124122
1018.23	0.114419
1027.87	0.104297
1037.52	0.0947551
1047.16	0.0849812
1056.8	0.0750123
1066.44	0.0643361
1076.08	0.0539227
1085.73	0.044779
1095.37	0.0364306
1105.01	0.0300649
1114.65	0.0251885
1124.3	0.0215443
1133.94	0.0183975
1143.58	0.0156236
1153.22	0.0135551
1162.87	0.0119227
1172.51	0.0104937
1182.15	0.00924553
1191.79	0.00840774
1201.43	0.00775194
1211.08	0.00753882
1220.72	0.00736965
1230.36	0.00683521
1240	0.00625659
1249.65	0.00621025
1259.29	0.00617908
1268.93	0.00617154
1278.57	0.00600731
1288.22	0.00600615
1297.86	0.00598121
1307.5	0.00613994
1317.14	0.00647933
1326.79	0.00644087
1336.43	0.00686775
1346.07	0.00732733
1355.71	0.00819888
1365.35	0.00883526
1375	0.00969898
1384.64	0.0113512
1394.28	0.0140801
1403.92	0.0160176
1413.57	0.0162264
1423.21	0.0155567
1432.85	0.0152737
1442.49	0.014845
1452.13	0.0147887
1461.78	0.0142788
1471.42	0.0143852
1481.06	0.0150243
1490.7	0.0147995
1500.35	0.0150301
1509.99	0.0158365
1519.63	0.016678
1529.27	0.0157838
1538.92	0.0136689
1548.56	0.0130682
1558.2	0.0126856
1567.84	0.0131539
1577.49	0.0139521
1587.13	0.0145333
1596.77	0.0147688
1606.41	0.014358
1616.06	0.0139728
1625.7	0.0140426
1635.34	0.0139622
1644.98	0.0137024
1654.62	0.0125418
1664.27	0.011814
1673.91	0.0109649
1683.55	0.0107371
1693.19	0.00987159
1702.84	0.00949493
1712.48	0.00929763
1722.12	0.00909551
1731.76	0.00871159
1741.4	0.00821084
1751.05	0.00781976
1760.69	0.00874757
1770.33	0.00869296
1779.97	0.0091058
1789.62	0.00902134
1799.26	0.00916355
1808.9	0.00903724
1818.54	0.0090372
1828.19	0.00913702
1837.83	0.00916346
1847.47	0.00909941
1857.11	0.00956355
1866.76	0.00921704
1876.4	0.00912783
1886.04	0.00950892
1895.68	0.00929558
1905.33	0.00922149
1914.97	0.00860211
1924.61	0.00865116
1934.25	0.00892033
1943.89	0.00883879
1953.54	0.00721233
1963.18	0.00804184
1972.82	0.00836916
1982.46	0.00919811
1992.11	0.0102118
2001.75	0.00923255
2011.39	0.00805077
2021.03	0.00837875
2030.67	0.010161
2040.32	0.0103172
2049.96	0.011138
2059.6	0.010129
2069.24	0.0106909
2078.89	0.0115519
2088.53	0.0113845
2098.17	0.0114938
2107.81	0.0113427
2117.46	0.0110342
2127.1	0.0103248
2136.74	0.0118178
2146.38	0.0106723
2156.03	0.012078
2165.67	0.0147355
2175.31	0.012801
2184.95	0.015547
2194.59	0.0152822
2204.24	0.0133187
2213.88	0.0139884
2223.52	0.0150237
2233.16	0.015337
2242.81	0.0146113
2252.45	0.0144618
2262.09	0.0145474
2271.73	0.0151241
2281.38	0.0151571
2291.02	0.0151757
2300.66	0.0150458
2310.3	0.0143958
2319.95	0.0154754
2329.59	0.0149535
2339.23	0.0149035
2348.87	0.0143276
2358.51	0.0151943
2368.16	0.0152481
2377.8	0.0142901
2387.44	0.0137554
2397.08	0.0139357
2406.73	0.0143076
2416.37	0.0148114
2426.01	0.0148531
2435.65	0.0148743
2445.3	0.0154896
2454.94	0.0157499
2464.58	0.0151391
2474.22	0.0153055
2483.86	0.0153138
2493.51	0.0157227
2503.15	0.0157042
2512.79	0.0152691
2522.43	0.0150327
2532.08	0.016023
2541.72	0.0162205
2551.36	0.0165752
2561	0.0165575
2570.65	0.0170829
2580.29	0.016988
2589.93	0.0167271
2599.57	0.0169186
2609.22	0.0173945
2618.86	0.0177604
2628.5	0.0175144
2638.14	0.0172442
2647.78	0.0175365
2657.43	0.017268
2667.07	0.0164895
2676.71	0.0168757
2686.35	0.0167663
2696	0.016954
2705.64	0.0173025
2715.28	0.0172443
2724.92	0.0177703
2734.57	0.0176897
2744.21	0.0176979
2753.85	0.0182451
2763.49	0.0182149
2773.14	0.0186526
2782.78	0.0187699
2792.42	0.0188895
2802.06	0.0191297
2811.7	0.0192711
2821.35	0.0188621
2830.99	0.0188354
2840.63	0.0185263
2850.27	0.0157655
2859.92	0.0169947
2869.56	0.018495
2879.2	0.0185931
2888.84	0.0191041
2898.49	0.0185951
2908.13	0.0173491
2917.77	0.014688
2927.41	0.0148441
2937.05	0.0171353
2946.7	0.0193374
2956.34	0.0196953
2965.98	0.0202043
2975.62	0.0216466
2985.27	0.0215938
2994.91	0.0205909
3004.55	0.0210817
3014.19	0.0201717
3023.84	0.0214382
3033.48	0.0216599
3043.12	0.0228142
3052.76	0.0220885
3062.41	0.0222296
3072.05	0.0231691
3081.69	0.0230463
3091.33	0.0226292
3100.97	0.0234331
3110.62	0.0239194
3120.26	0.023427
3129.9	0.0245182
3139.54	0.0243975
3149.19	0.0247711
3158.83	0.0248308
3168.47	0.0245696
3178.11	0.0250824
3187.76	0.0252765
3197.4	0.025802
3207.04	0.0248114
3216.68	0.0252195
3226.32	0.0258767
3235.97	0.0257109
3245.61	0.0255258
3255.25	0.0265004
3264.89	0.0266908
3274.54	0.0265011
3284.18	0.0263819
3293.82	0.0265334
3303.46	0.0254095
3313.11	0.0262955
3322.75	0.0257228
3332.39	0.0261894
3342.03	0.0254506
3351.68	0.0259072
3361.32	0.0269937
3370.96	0.0253357
3380.6	0.0260359
3390.24	0.0259463
3399.89	0.0257161
3409.53	0.0259544
3419.17	0.0247176
3428.81	0.0250642
3438.46	0.0245945
3448.1	0.0247563
3457.74	0.0234915
3467.38	0.0245731
3477.03	0.0242183
3486.67	0.0237
3496.31	0.0237208
3505.95	0.0232188
3515.59	0.0224764
3525.24	0.0228027
3534.88	0.0208776
3544.52	0.0219009
3554.16	0.0204315
3563.81	0.0204353
3573.45	0.0187886
3583.09	0.0182453
3592.73	0.0165894
3602.38	0.0164905
3612.02	0.0145469
3621.66	0.0143265
3631.3	0.0135235
3640.95	0.0136991
3650.59	0.0129702
3660.23	0.0126169
3669.87	0.0150383
3679.51	0.0123914
3689.16	0.0125818
3698.8	0.0137753
3708.44	0.0135895
3718.08	0.0140296
3727.73	0.0145693
3737.37	0.0130949
3747.01	0.0136482
3756.65	0.0145917
3766.3	0.0143009
3775.94	0.0144169
3785.58	0.0133178
3795.22	0.0139441
3804.86	0.0135679
3814.51	0.0141209
3824.15	0.0135599
3833.79	0.0127296
3843.43	0.0140062
3853.08	0.0132051
3862.72	0.0137834
3872.36	0.0151775
3882	0.0133572
3891.65	0.0127582
3901.29	0.0138059
3910.93	0.0136787
3920.57	0.0142921
3930.22	0.0129041
3939.86	0.0145899
3949.5	0.0150569
3959.14	0.0139338
3968.78	0.0138455
3978.43	0.0138449
3988.07	0.0142187
3997.71	0.0136778
