Measurement: Infrared, Infrared Data Processed
Mineral: Sapphirine
Rruff sample: R060073
Ideal chemistry: Mg_4_(Mg_3_Al_9_)O_4_[Si_3_Al_9_O_36_]
Locality: Androy, Madagascar
Source: Marcus Origlieri
Description: Dark blue massive
Measured chemistry: Mg_4_(Mg_3.32_Al_8.34_Fe^2+^_0.42_)O_4_(Si_3.5_Al_8.5_O_36_)
x	intensity
399.193	0.243889
408.835	0.246109
418.477	0.248472
428.12	0.245694
437.762	0.238125
447.404	0.237155
457.047	0.241457
466.689	0.236012
476.331	0.226068
485.974	0.217495
495.616	0.204815
505.258	0.190855
514.901	0.172379
524.543	0.175398
534.185	0.185235
543.828	0.196034
553.47	0.201371
563.112	0.197286
572.755	0.18881
582.397	0.200787
592.039	0.194034
601.682	0.17947
611.324	0.167911
620.966	0.146872
630.609	0.145731
640.251	0.136313
649.893	0.124091
659.536	0.130994
669.178	0.14961
678.82	0.170664
688.463	0.176229
698.105	0.171298
707.747	0.176333
717.39	0.174482
727.032	0.164788
736.674	0.151402
746.317	0.144582
755.959	0.138308
765.601	0.130473
775.244	0.119949
784.886	0.107558
794.528	0.103317
804.171	0.111368
813.813	0.118821
823.455	0.120255
833.098	0.119574
842.74	0.117948
852.382	0.113503
862.025	0.10689
871.667	0.100364
881.309	0.0955813
890.952	0.0924977
900.594	0.0933031
910.236	0.0882761
919.879	0.0887058
929.521	0.103936
939.163	0.10954
948.806	0.108613
958.448	0.109508
968.09	0.116492
977.733	0.11501
987.375	0.101762
997.017	0.0817144
1006.66	0.0642025
1016.3	0.0517395
1025.94	0.0433776
1035.59	0.0366108
1045.23	0.0349562
1054.87	0.0308943
1064.51	0.0252958
1074.16	0.0226382
1083.8	0.0209977
1093.44	0.0187859
1103.08	0.0164772
1112.72	0.0143134
1122.37	0.0127462
1132.01	0.0109214
1141.65	0.00993302
1151.3	0.00932506
1160.94	0.00892577
1170.58	0.00868741
1180.22	0.00862998
1189.86	0.00853368
1199.51	0.00806631
1209.15	0.00772304
1218.79	0.00733295
1228.43	0.00717116
1238.08	0.00696512
1247.72	0.00706543
1257.36	0.00708994
1267	0.00726451
1276.64	0.00768164
1286.29	0.00782237
1295.93	0.00785201
1305.57	0.00808281
1315.21	0.00813804
1324.86	0.00828908
1334.5	0.0082401
1344.14	0.00837323
1353.78	0.00840445
1363.43	0.0079494
1373.07	0.00822828
1382.71	0.00871459
1392.35	0.00878028
1401.99	0.00919907
1411.64	0.00954779
1421.28	0.00925084
1430.92	0.00987266
1440.57	0.0102469
1450.21	0.0101919
1459.85	0.00976015
1469.49	0.0100416
1479.13	0.0109314
1488.78	0.0103937
1498.42	0.0103576
1508.06	0.00900345
1517.7	0.010444
1527.35	0.0112006
1536.99	0.0109831
1546.63	0.0120244
1556.27	0.0104791
1565.91	0.0129324
1575.56	0.0112679
1585.2	0.0139092
1594.84	0.0142284
1604.48	0.0145002
1614.13	0.0141557
1623.77	0.0139885
1633.41	0.0139426
1643.05	0.0147848
1652.7	0.00936169
1662.34	0.0140369
1671.98	0.014081
1681.62	0.0138753
1691.27	0.0143992
1700.91	0.0109099
1710.55	0.0138415
1720.19	0.0126554
1729.84	0.0128149
1739.48	0.0112709
1749.12	0.0116683
1758.76	0.0134327
1768.4	0.0131518
1778.05	0.0139319
1787.69	0.0144362
1797.33	0.0142652
1806.97	0.0145127
1816.62	0.0141382
1826.26	0.0145613
1835.9	0.0144581
1845.54	0.0140236
1855.18	0.014955
1864.83	0.0147045
1874.47	0.01451
1884.11	0.0149603
1893.75	0.0143787
1903.4	0.014669
1913.04	0.0150887
1922.68	0.0147033
1932.32	0.0151641
1941.97	0.0135529
1951.61	0.0136038
1961.25	0.0144093
1970.89	0.0142432
1980.54	0.0162758
1990.18	0.0147538
1999.82	0.0151309
2009.46	0.0158952
2019.11	0.0156334
2028.75	0.0158448
2038.39	0.0185033
2048.03	0.0186511
2057.67	0.0186133
2067.32	0.0187588
2076.96	0.0187845
2086.6	0.0192825
2096.24	0.0186994
2105.89	0.0190416
2115.53	0.01912
2125.17	0.018292
2134.81	0.0173319
2144.45	0.0183386
2154.1	0.0172404
2163.74	0.0223904
2173.38	0.0203871
2183.02	0.021892
2192.67	0.0216059
2202.31	0.0209149
2211.95	0.0219887
2221.59	0.0221242
2231.24	0.0221509
2240.88	0.0224646
2250.52	0.0227173
2260.16	0.0231601
2269.8	0.0237018
2279.45	0.0237724
2289.09	0.0238274
2298.73	0.023394
2308.38	0.0234278
2318.02	0.0243088
2327.66	0.0237237
2337.3	0.0239154
2346.94	0.0234743
2356.59	0.0241571
2366.23	0.0241494
2375.87	0.0240132
2385.51	0.0242106
2395.16	0.0243412
2404.8	0.0247952
2414.44	0.0250984
2424.08	0.0253242
2433.72	0.0256469
2443.37	0.0262995
2453.01	0.0263542
2462.65	0.0263173
2472.29	0.0266956
2481.94	0.0263604
2491.58	0.0263071
2501.22	0.0262596
2510.86	0.026463
2520.51	0.0263538
2530.15	0.0265278
2539.79	0.0267954
2549.43	0.0267951
2559.07	0.0264136
2568.72	0.0272346
2578.36	0.0273804
2588	0.0272435
2597.64	0.0278116
2607.29	0.0282384
2616.93	0.0283476
2626.57	0.0283389
2636.21	0.0287706
2645.86	0.029052
2655.5	0.0290521
2665.14	0.0286471
2674.78	0.029195
2684.43	0.0296077
2694.07	0.0296897
2703.71	0.0303733
2713.35	0.0304294
2722.99	0.0307961
2732.64	0.0311838
2742.28	0.0315525
2751.92	0.0320362
2761.56	0.0320522
2771.21	0.0324161
2780.85	0.0328208
2790.49	0.0335363
2800.13	0.0332433
2809.78	0.0337469
2819.42	0.034173
2829.06	0.0346072
2838.7	0.0342615
2848.34	0.0311513
2857.99	0.0327201
2867.63	0.0343511
2877.27	0.0344673
2886.91	0.0344887
2896.56	0.0340912
2906.2	0.0337509
2915.84	0.0303284
2925.48	0.0313687
2935.13	0.0329274
2944.77	0.0339498
2954.41	0.0346483
2964.05	0.0346166
2973.7	0.0346158
2983.34	0.0352029
2992.98	0.0351388
3002.62	0.0345205
3012.26	0.0349369
3021.91	0.0345505
3031.55	0.034467
3041.19	0.0345551
3050.83	0.0348932
3060.48	0.0346023
3070.12	0.0347192
3079.76	0.0350032
3089.4	0.0352463
3099.05	0.0349488
3108.69	0.0347383
3118.33	0.0348993
3127.97	0.0345104
3137.61	0.0342771
3147.26	0.0343729
3156.9	0.0346623
3166.54	0.0348092
3176.18	0.0348401
3185.83	0.0353499
3195.47	0.0343029
3205.11	0.0348998
3214.75	0.0343997
3224.4	0.0347867
3234.04	0.0358862
3243.68	0.0352525
3253.32	0.0357079
3262.97	0.036571
3272.61	0.0372927
3282.25	0.0371565
3291.89	0.0379704
3301.53	0.0384526
3311.18	0.0392956
3320.82	0.0390237
3330.46	0.0392583
3340.1	0.0399062
3349.75	0.0396381
3359.39	0.0401403
3369.03	0.0387435
3378.67	0.0387863
3388.32	0.0384225
3397.96	0.0378517
3407.6	0.0366246
3417.24	0.0363897
3426.89	0.0363216
3436.53	0.0356715
3446.17	0.0348682
3455.81	0.0344569
3465.45	0.0349042
3475.1	0.0337868
3484.74	0.0340763
3494.38	0.0329449
3504.02	0.0330555
3513.67	0.0326845
3523.31	0.0325442
3532.95	0.0323193
3542.59	0.0323789
3552.24	0.0315365
3561.88	0.0325168
3571.52	0.0314696
3581.16	0.0310475
3590.8	0.0313073
3600.45	0.0318999
3610.09	0.0305351
3619.73	0.0321039
3629.37	0.0321335
3639.02	0.0311332
3648.66	0.0319607
3658.3	0.0297453
3667.94	0.0313033
3677.59	0.0299353
3687.23	0.0297975
3696.87	0.0306898
3706.51	0.0298678
3716.16	0.0295003
3725.8	0.0304031
3735.44	0.031163
3745.08	0.028193
3754.72	0.0294194
3764.37	0.0302259
3774.01	0.0298173
3783.65	0.0298149
3793.29	0.0298064
3802.94	0.028698
3812.58	0.0296779
3822.22	0.0299554
3831.86	0.0295873
3841.51	0.0304122
3851.15	0.0292434
3860.79	0.0295852
3870.43	0.0296867
3880.07	0.0296685
3889.72	0.0298849
3899.36	0.0306796
3909	0.0290155
3918.64	0.0293579
3928.29	0.0300574
3937.93	0.0292533
3947.57	0.0291281
3957.21	0.0299302
3966.86	0.0293272
3976.5	0.0297193
3986.14	0.0303427
3995.78	0.0307566
