Measurement: Infrared, Infrared Data Processed
Mineral: Scholzite
Rruff sample: R050238
Ideal chemistry: CaZn^2+^_2_(PO_4_)_2_2H_2_O
Locality: near Blinman, South Australia, Australia
Source: Marcus Origlieri
Description: Colorless bladed crystals
Measured chemistry: Ca_1.00_Zn_2.00_(P_1.00_O_4_)_2_Â·2H_2_O
x	intensity
50.1401	0.00338876
52.0686	0.00253281
53.9971	0.00426902
55.9255	0.00373556
57.854	0.00395788
59.7825	0.00486468
61.7109	0.00570822
63.6394	0.00575316
65.5679	0.00380538
67.4963	0.0038303
69.4248	0.00532061
71.3533	0.00603101
73.2817	0.00741059
75.2102	0.00728139
77.1387	0.00744249
79.0671	0.00893295
80.9956	0.00974222
82.9241	0.0101292
84.8525	0.00983985
86.781	0.00872044
88.7095	0.00996838
90.6379	0.0118756
92.5664	0.0120721
94.4948	0.0121494
96.4233	0.0129756
98.3518	0.0144742
100.28	0.0156265
102.209	0.0149048
104.137	0.0151824
106.066	0.0160297
107.994	0.0156951
109.923	0.0147174
111.851	0.0154412
113.779	0.0167448
115.708	0.0177376
117.636	0.017863
119.565	0.0186315
121.493	0.019956
123.422	0.0209663
125.35	0.0209169
127.279	0.019935
129.207	0.0185936
131.136	0.0181039
133.064	0.0178969
134.993	0.0177532
136.921	0.0181918
138.85	0.0191831
140.778	0.0189452
142.707	0.0182295
144.635	0.0177195
146.563	0.0174177
148.492	0.0170885
150.42	0.0170738
152.349	0.0174173
154.277	0.0181209
156.206	0.0192471
158.134	0.0206753
160.063	0.0214172
161.991	0.0220815
163.92	0.0227001
165.848	0.0229457
167.777	0.0230578
169.705	0.0234327
171.633	0.0231377
173.562	0.0228058
175.49	0.023031
177.419	0.0237185
179.347	0.0238075
181.276	0.0239628
183.204	0.0235937
185.133	0.0233292
187.061	0.0227643
188.99	0.0221713
190.918	0.0221232
192.847	0.0222947
194.775	0.0221303
196.704	0.0216238
198.632	0.0212679
200.56	0.0210995
202.489	0.0208358
204.417	0.0205885
206.346	0.0207336
208.274	0.0210472
210.203	0.0216923
212.131	0.0224251
214.06	0.023497
215.988	0.0250338
217.917	0.0263056
219.845	0.0271853
221.774	0.0278385
223.702	0.0282875
225.631	0.0281823
227.559	0.0279205
229.488	0.0274237
231.416	0.0268781
233.344	0.0264337
235.273	0.0264377
237.201	0.0263224
239.13	0.0263984
241.058	0.0267008
242.987	0.0271221
244.915	0.0275767
246.844	0.0284401
248.772	0.0291703
250.701	0.0297417
252.629	0.0301483
254.558	0.0306744
256.486	0.0308818
258.414	0.030798
260.343	0.0306971
262.271	0.0304611
264.2	0.0302613
266.128	0.0302776
268.057	0.0305926
269.985	0.0317298
271.914	0.0328598
273.842	0.0334728
275.771	0.0339095
277.699	0.034527
279.628	0.0351782
281.556	0.035633
283.485	0.0358701
285.413	0.0356524
287.341	0.035158
289.27	0.0350738
291.198	0.0348458
293.127	0.0341456
295.055	0.0334665
296.984	0.0332737
298.912	0.0328679
300.841	0.0323342
302.769	0.0317383
304.698	0.0315135
306.626	0.0313521
308.555	0.0314348
310.483	0.0315788
312.411	0.0319912
314.34	0.032368
316.269	0.0329882
318.197	0.033496
320.125	0.0337762
322.054	0.0339172
323.982	0.0341565
325.911	0.0338291
327.839	0.0335561
329.768	0.0334865
331.696	0.0331843
333.625	0.0327362
335.553	0.0325473
337.482	0.0321904
339.41	0.0321776
341.339	0.032341
343.267	0.0319475
345.195	0.0312369
347.124	0.0305883
349.052	0.0299965
350.981	0.0292671
352.909	0.0283086
354.838	0.0273143
356.766	0.0262682
358.695	0.0253597
360.623	0.0245651
362.552	0.0239071
364.48	0.0234866
366.409	0.022977
368.337	0.0224538
370.265	0.0224316
372.194	0.0221763
374.122	0.0220655
376.051	0.0221057
377.979	0.0221193
379.908	0.0217964
381.836	0.0212684
383.765	0.0212237
385.693	0.021424
387.622	0.0213322
389.55	0.0214615
391.479	0.0215425
393.407	0.0214652
395.336	0.0214797
397.264	0.0217917
399.192	0.0219847
401.121	0.022329
403.049	0.0229012
404.978	0.02361
406.906	0.0241055
408.835	0.0247221
410.763	0.0255689
412.692	0.026523
414.62	0.0274571
416.549	0.0283988
418.477	0.028805
420.406	0.0289249
422.334	0.0289913
424.262	0.0287304
426.191	0.0280347
428.12	0.0273341
430.048	0.0267022
431.976	0.02616
433.905	0.0258434
435.833	0.0255564
437.762	0.0251805
439.69	0.024925
441.619	0.0246775
443.547	0.0246776
445.476	0.0245927
447.404	0.0244543
449.333	0.0246289
451.261	0.0249755
453.19	0.0253157
455.118	0.0254909
457.046	0.025762
458.975	0.0259943
460.903	0.0257753
462.832	0.0259656
464.76	0.0263286
466.689	0.026582
468.617	0.0267358
470.546	0.0267785
472.474	0.0271325
474.403	0.0277143
476.331	0.0280283
478.26	0.0282615
480.188	0.0279885
482.116	0.0279015
484.045	0.0283786
485.974	0.0288712
487.902	0.0292341
489.83	0.0296999
491.759	0.0302866
493.687	0.0310294
495.616	0.0311432
497.544	0.0312137
499.473	0.0319052
501.401	0.0327797
503.33	0.0331684
505.258	0.0332681
507.187	0.0336907
509.115	0.0342489
511.043	0.0345534
512.972	0.0348097
514.9	0.0347808
516.829	0.0350689
518.757	0.0360746
520.686	0.0370205
522.614	0.0373143
524.543	0.037996
526.471	0.0391279
528.4	0.0399536
530.328	0.0410364
532.257	0.0423165
534.185	0.0434297
536.114	0.0451725
538.042	0.0472145
539.971	0.0491304
541.899	0.0505567
543.827	0.0518946
545.756	0.0529782
547.684	0.0526588
549.613	0.050907
551.541	0.0491642
553.47	0.04695
555.398	0.0447349
557.327	0.0430708
559.255	0.0419003
561.184	0.0407351
563.112	0.0402659
565.041	0.0408461
566.969	0.0415145
568.898	0.0423762
570.826	0.0432371
572.755	0.0443366
574.683	0.0457639
576.611	0.0469766
578.54	0.0481294
580.468	0.0490066
582.397	0.0494206
584.325	0.0493797
586.254	0.0491751
588.182	0.0489023
590.111	0.047874
592.039	0.0459973
593.968	0.0440347
595.896	0.042158
597.824	0.040673
599.753	0.0391652
601.682	0.0376791
603.61	0.0368106
605.538	0.0359526
607.467	0.0361666
609.395	0.0370885
611.324	0.0372945
613.252	0.0379105
615.181	0.0387321
617.109	0.0384848
619.038	0.0384325
620.966	0.0398766
622.894	0.0418876
624.823	0.0438883
626.751	0.0462254
628.68	0.0488932
630.608	0.0513081
632.537	0.0532025
634.465	0.0543058
636.394	0.0548625
638.322	0.05549
640.251	0.0563728
642.179	0.0566102
644.108	0.0566003
646.036	0.0564167
647.965	0.0556013
649.893	0.0545239
651.822	0.0534502
653.75	0.0523616
655.678	0.0512763
657.607	0.050265
659.535	0.0489715
661.464	0.0476114
663.392	0.0465814
665.321	0.0456858
667.249	0.044873
669.178	0.0442073
671.106	0.0439275
673.035	0.0435586
674.963	0.0432316
676.892	0.0433562
678.82	0.0435836
680.749	0.0433407
682.677	0.0437368
684.606	0.0441431
686.534	0.0439387
688.462	0.0439339
690.391	0.0444995
692.319	0.0448852
694.248	0.0448043
696.176	0.045025
698.105	0.0447762
700.033	0.0453293
