Measurement: Infrared, Infrared Data Processed
Mineral: Shortite
Rruff sample: R050248
Ideal chemistry: Na_2_Ca_2_(CO_3_)_3_
Locality: Stauffer mine, Green River, Wyoming, USA
Source: Marcus Origlieri
Description: Colorless wedge-shaped single crystal
Measured chemistry: Na_2.00_Ca_2.00_(CO_3_)_3_ ; CO2 not measured but estimated by difference and stoichiometry.
x	intensity
374.123	0.022518
383.765	0.0104239
393.407	0.00967367
403.05	0.0100844
412.692	0.00830662
422.334	0.00851172
431.976	0.00791352
441.619	0.00823265
451.261	0.0074065
460.904	0.00663967
470.546	0.00707788
480.188	0.00616699
489.83	0.00536883
499.473	0.00538202
509.115	0.00482164
518.758	0.00445255
528.4	0.00368539
538.042	0.00511665
547.684	0.00390326
557.327	0.00508075
566.969	0.00537968
576.611	0.00507322
586.254	0.00699135
595.896	0.0065916
605.538	0.00726144
615.181	0.0072099
624.823	0.00709428
634.466	0.00686168
644.108	0.00720764
653.75	0.00760406
663.393	0.00753378
673.035	0.0072217
682.677	0.0088422
692.319	0.0342006
701.962	0.00973283
711.604	0.035173
721.246	0.0332192
730.889	0.0587709
740.531	0.00631597
750.173	0.00583298
759.816	0.00600185
769.458	0.00656755
779.101	0.0069127
788.743	0.007178
798.385	0.00774993
808.028	0.00804745
817.67	0.00902116
827.312	0.0121291
836.955	0.0160821
846.597	0.0616742
856.239	0.0477273
865.881	0.218694
875.524	0.0263432
885.166	0.00671135
894.808	0.00592247
904.451	0.00622672
914.093	0.00652273
923.736	0.00697158
933.378	0.00748768
943.02	0.00804959
952.663	0.00880984
962.305	0.00948394
971.947	0.0101537
981.59	0.0112631
991.232	0.0119825
1000.87	0.0130308
1010.52	0.0137659
1020.16	0.0146638
1029.8	0.0150169
1039.44	0.016279
1049.09	0.0172416
1058.73	0.0186244
1068.37	0.0354066
1078.01	0.0177687
1087.65	0.0374619
1097.3	0.0149144
1106.94	0.0152331
1116.58	0.0160366
1126.22	0.0174305
1135.87	0.0180615
1145.51	0.0183815
1155.15	0.0182911
1164.79	0.0185222
1174.44	0.0191166
1184.08	0.0202339
1193.72	0.021185
1203.36	0.0225022
1213.01	0.0237788
1222.65	0.0257251
1232.29	0.0282039
1241.93	0.0313406
1251.58	0.0347644
1261.22	0.0381012
1270.86	0.0423966
1280.5	0.0475648
1290.14	0.0535953
1299.79	0.0599041
1309.43	0.0697275
1319.07	0.0813556
1328.71	0.0960305
1338.36	0.115995
1348	0.144382
1357.64	0.185351
1367.28	0.228939
1376.92	0.304329
1386.57	0.393995
1396.21	0.499267
1405.85	0.557578
1415.49	0.375812
1425.14	0.359916
1434.78	0.470345
1444.42	0.499039
1454.06	0.491345
1463.71	0.470793
1473.35	0.447981
1482.99	0.35086
1492.63	0.258287
1502.28	0.193415
1511.92	0.131326
1521.56	0.154314
1531.2	0.142132
1540.85	0.117154
1550.49	0.0849311
1560.13	0.0548328
1569.77	0.0324885
1579.41	0.0204886
1589.06	0.0150784
1598.7	0.0111178
1608.34	0.00836006
1617.98	0.00750068
1627.63	0.00666387
1637.27	0.00632088
1646.91	0.00605943
1656.55	0.00554815
1666.19	0.00550968
1675.84	0.00584533
1685.48	0.0052914
1695.12	0.00453114
1704.77	0.0039161
1714.41	0.00308072
1724.05	0.00191326
1733.69	0.00144254
1743.33	0.000718806
1752.98	0.00155363
1762.62	0.00581652
1772.26	0.00494192
1781.9	0.0060971
1791.55	0.00581778
1801.19	0.00634838
1810.83	0.00608016
1820.47	0.00131528
1830.12	0.00065414
1839.76	0.000348515
1849.4	0.000385899
1859.04	0.000647465
1868.68	0.00024752
1878.33	0.00024251
1887.97	0.000542039
1897.61	0.000292549
1907.25	0.000322547
1916.9	6.09126e-05
1926.54	0.000673464
1936.18	-0.000177686
1945.82	-0.000221371
1955.46	-0.00142993
1965.11	-0.00209423
1974.75	-0.00237188
1984.39	-0.00124731
1994.04	-0.000970361
2003.68	-0.00163319
2013.32	-0.00211733
2022.96	-0.00323929
2032.6	-0.00211443
2042.25	-0.00162349
2051.89	-0.000414015
2061.53	-0.000259528
2071.17	0.000158472
2080.82	0.000906748
2090.46	-3.99652e-05
2100.1	0.000382866
2109.74	0.000965747
2119.39	0.000285855
2129.03	-0.00127729
2138.67	-0.00252615
2148.31	-0.00352965
2157.95	-0.00531848
2167.6	-0.00180637
2177.24	-0.00290101
2186.88	-0.0011305
2196.52	-0.00131778
2206.17	-0.000471008
2215.81	-0.000392563
2225.45	-0.00127873
2235.09	-0.000422185
2244.74	2.47679e-05
2254.38	0.000193334
2264.02	0.00052713
2273.66	0.000968462
2283.3	0.00226224
2292.95	0.00217768
2302.59	0.00263715
2312.23	0.00263283
2321.87	0.00388397
2331.52	0.00318208
2341.16	0.00309658
2350.8	0.00277546
2360.44	0.00326126
2370.09	0.00239435
2379.73	0.00244155
2389.37	0.00184106
2399.01	0.00217414
2408.66	0.00286089
2418.3	0.00274508
2427.94	0.00289412
2437.58	0.00321002
2447.22	0.00403668
2456.87	0.00679538
2466.51	0.00498941
2476.15	0.00409214
2485.79	0.00350493
2495.44	0.00432654
2505.08	0.00795977
2514.72	0.00723802
2524.36	0.00617839
2534.01	0.00486406
2543.65	0.00616762
2553.29	0.00568517
2562.93	0.0051854
2572.57	0.0047287
2582.22	0.00421254
2591.86	0.00401356
2601.5	0.00445808
2611.14	0.00515231
2620.79	0.00459409
2630.43	0.00418053
2640.07	0.00349132
2649.71	0.0032688
2659.36	0.00259659
2669	0.00267292
2678.64	0.00199975
2688.28	0.00164037
2697.93	0.00188234
2707.57	0.0018879
2717.21	0.00197299
2726.85	0.00176353
2736.49	0.0015051
2746.14	0.00120469
2755.78	0.0014124
2765.42	0.00119242
2775.06	0.00113859
2784.71	0.000991001
2794.35	0.000275481
2803.99	0.000410721
2813.63	0.000498493
2823.28	0.0015428
2832.92	0.00236375
2842.56	0.00271232
2852.2	0.00087987
2861.84	0.00160167
2871.49	0.00201649
2881.13	0.00215781
2890.77	0.00225004
2900.41	0.0022509
2910.06	0.00165327
2919.7	0.000322964
2929.34	0.00198625
2938.98	0.00243498
2948.62	0.00173046
2958.27	0.002031
2967.91	0.00257265
2977.55	0.00303474
2987.2	0.00315787
2996.84	0.00346293
3006.48	0.00351832
3016.12	0.00151521
3025.76	0.00422806
3035.41	0.00353281
3045.05	0.00367535
3054.69	0.00352491
3064.33	0.00325163
3073.98	0.00415423
3083.62	0.00389896
3093.26	0.00436701
3102.9	0.00554761
3112.55	0.00503743
3122.19	0.00573459
3131.83	0.00643359
3141.47	0.0062365
3151.11	0.00667977
3160.76	0.00688134
3170.4	0.00751851
3180.04	0.00738808
3189.68	0.00775968
3199.33	0.00737928
3208.97	0.00795555
3218.61	0.00721214
3228.25	0.0074503
3237.9	0.008036
3247.54	0.00759931
3257.18	0.00811198
3266.82	0.00841635
3276.47	0.00839554
3286.11	0.00831302
3295.75	0.00803924
3305.39	0.00831422
3315.03	0.00805888
3324.68	0.00822612
3334.32	0.00827653
3343.96	0.00868497
3353.6	0.00816404
3363.25	0.00836649
3372.89	0.00848636
3382.53	0.00873316
3392.17	0.00878926
3401.82	0.0085071
3411.46	0.00856908
3421.1	0.00883799
3430.74	0.0088486
3440.39	0.00891131
3450.03	0.0104489
3459.67	0.0103585
3469.31	0.00961707
3478.95	0.0096677
3488.6	0.0101616
3498.24	0.00902771
3507.88	0.0101731
3517.52	0.00979682
3527.17	0.00907684
3536.81	0.00891411
3546.45	0.00886774
3556.09	0.0085962
3565.74	0.00898179
3575.38	0.00829548
3585.02	0.00856937
3594.66	0.0086153
3604.3	0.00889769
3613.95	0.00854256
3623.59	0.00934938
3633.23	0.00924214
3642.87	0.00835294
3652.52	0.00810972
3662.16	0.00810772
3671.8	0.0090122
3681.44	0.00862447
3691.09	0.00829703
3700.73	0.00875805
3710.37	0.00836966
3720.01	0.00890791
3729.66	0.00985926
3739.3	0.00913948
3748.94	0.00969267
3758.58	0.00865281
3768.22	0.00926129
3777.87	0.00900189
3787.51	0.00950079
3797.15	0.0112037
3806.79	0.00963568
3816.44	0.00914707
3826.08	0.0101135
3835.72	0.0100794
3845.36	0.00986878
3855.01	0.00960162
3864.65	0.00981381
3874.29	0.0098157
3883.93	0.0101735
3893.57	0.0105527
3903.22	0.0102328
3912.86	0.011088
3922.5	0.0112224
3932.14	0.011182
3941.79	0.0102885
3951.43	0.00976844
3961.07	0.0103551
3970.71	0.0118104
3980.36	0.0113314
3990	0.0117137
3999.64	0.0118752
