Measurement: Infrared, Infrared Data Processed
Mineral: Siderite
Rruff sample: R050349
Ideal chemistry: Fe^2+^CO_3_
Locality: Litchfield County, Connecticut, USA
Source: California Institute of Technology
Description: Grayish brown rhombohedral cleavage fragment
Measured chemistry: (Fe_0.83_Mg_0.09_Mn_0.05_Ca_0.01_)_Î£=0.98_CO_3_
x	intensity
399.193	0.0814916
408.835	0.05923
418.477	0.0483563
428.12	0.0438819
437.762	0.0456774
447.404	0.0458266
457.047	0.0459006
466.689	0.0484921
476.331	0.0457831
485.974	0.0476538
495.616	0.0468661
505.258	0.0463152
514.901	0.0473018
524.543	0.0488253
534.185	0.0498433
543.828	0.0506454
553.47	0.0513244
563.112	0.0512401
572.755	0.0504116
582.397	0.051251
592.039	0.0507313
601.682	0.0504581
611.324	0.0500162
620.966	0.0494804
630.609	0.0479464
640.251	0.0465171
649.893	0.0453758
659.536	0.0445421
669.178	0.0449771
678.82	0.0444797
688.463	0.0454466
698.105	0.0471183
707.747	0.0492446
717.39	0.0557235
727.032	0.0780449
736.674	0.189572
746.317	0.0479258
755.959	0.0323795
765.601	0.032478
775.244	0.0354163
784.886	0.0370851
794.528	0.0401719
804.171	0.0429406
813.813	0.0458896
823.455	0.053851
833.098	0.0769183
842.74	0.106262
852.382	0.212416
862.025	0.365284
871.667	0.214181
881.309	0.0476134
890.952	0.0359415
900.594	0.0365599
910.236	0.0371821
919.879	0.0380912
929.521	0.0391819
939.163	0.0404066
948.806	0.0413215
958.448	0.0428987
968.09	0.0444739
977.733	0.0455696
987.375	0.0473521
997.017	0.0496361
1006.66	0.0515227
1016.3	0.0548241
1025.94	0.0577384
1035.59	0.0611549
1045.23	0.0642594
1054.87	0.0684284
1064.51	0.0720297
1074.16	0.0756874
1083.8	0.0800281
1093.44	0.0804049
1103.08	0.0815771
1112.72	0.0835606
1122.37	0.085849
1132.01	0.0896378
1141.65	0.0945776
1151.3	0.0996746
1160.94	0.105584
1170.58	0.111943
1180.22	0.11782
1189.86	0.123621
1199.51	0.129612
1209.15	0.136548
1218.79	0.144906
1228.43	0.154793
1238.08	0.167027
1247.72	0.180967
1257.36	0.196987
1267	0.21437
1276.64	0.23546
1286.29	0.25694
1295.93	0.281781
1305.57	0.310636
1315.21	0.342081
1324.86	0.376991
1334.5	0.413575
1344.14	0.456012
1353.78	0.503816
1363.43	0.556864
1373.07	0.614358
1382.71	0.668454
1392.35	0.701482
1401.99	0.715111
1411.64	0.679567
1421.28	0.615292
1430.92	0.550649
1440.57	0.49217
1450.21	0.437798
1459.85	0.389037
1469.49	0.345198
1479.13	0.304144
1488.78	0.262362
1498.42	0.220957
1508.06	0.180746
1517.7	0.142351
1527.35	0.110923
1536.99	0.0834787
1546.63	0.0584381
1556.27	0.0348378
1565.91	0.0248146
1575.56	0.0216448
1585.2	0.0211939
1594.84	0.0202887
1604.48	0.0180722
1614.13	0.0148297
1623.77	0.0132163
1633.41	0.0113017
1643.05	0.0106697
1652.7	0.00903954
1662.34	0.00804826
1671.98	0.00632014
1681.62	0.00582917
1691.27	0.0053134
1700.91	0.00401671
1710.55	0.00194641
1720.19	0.00129649
1729.84	0.000950276
1739.48	-0.00167103
1749.12	-0.000613094
1758.76	0.0030434
1768.4	0.00534095
1778.05	0.00628404
1787.69	0.00813523
1797.33	0.0116338
1806.97	0.0145656
1816.62	0.0141853
1826.26	0.00935065
1835.9	0.00694958
1845.54	0.00464434
1855.18	0.00431454
1864.83	0.00333414
1874.47	0.00303825
1884.11	0.00360699
1893.75	0.00372163
1903.4	0.00333781
1913.04	0.00280465
1922.68	0.00303429
1932.32	0.00194248
1941.97	0.00153023
1951.61	0.00152442
1961.25	0.000236835
1970.89	-0.00107227
1980.54	0.00162196
1990.18	0.0044916
1999.82	0.00435045
2009.46	0.00447201
2019.11	0.00589307
2028.75	0.00292606
2038.39	0.0052927
2048.03	0.00468567
2057.67	0.0073515
2067.32	0.00638949
2076.96	0.00547218
2086.6	0.00661657
2096.24	0.0063939
2105.89	0.0078931
2115.53	0.00619955
2125.17	0.00360922
2134.81	0.00219808
2144.45	0.00438956
2154.1	0.00160243
2163.74	0.00481563
2173.38	0.00291959
2183.02	0.00541491
2192.67	0.00589882
2202.31	0.00777009
2211.95	0.00632017
2221.59	0.00758117
2231.24	0.00738736
2240.88	0.0102212
2250.52	0.0104854
2260.16	0.0088646
2269.8	0.00934572
2279.45	0.0113349
2289.09	0.010925
2298.73	0.0121005
2308.38	0.0118847
2318.02	0.0141728
2327.66	0.0145337
2337.3	0.0156655
2346.94	0.0142028
2356.59	0.0149072
2366.23	0.0162306
2375.87	0.0121283
2385.51	0.0124003
2395.16	0.0117694
2404.8	0.0115197
2414.44	0.0119196
2424.08	0.01315
2433.72	0.0123426
2443.37	0.0144219
2453.01	0.0145832
2462.65	0.0146039
2472.29	0.0173694
2481.94	0.0179986
2491.58	0.0200346
2501.22	0.0213382
2510.86	0.0229558
2520.51	0.0197085
2530.15	0.0171492
2539.79	0.0172751
2549.43	0.0170005
2559.07	0.0149832
2568.72	0.0156259
2578.36	0.0173411
2588	0.0145095
2597.64	0.0153803
2607.29	0.0145188
2616.93	0.0148498
2626.57	0.0148855
2636.21	0.0148642
2645.86	0.0148713
2655.5	0.0133989
2665.14	0.0133315
2674.78	0.0135904
2684.43	0.0131747
2694.07	0.0146134
2703.71	0.0134102
2713.35	0.0136098
2722.99	0.0155028
2732.64	0.0151109
2742.28	0.0147535
2751.92	0.014865
2761.56	0.0149988
2771.21	0.0162449
2780.85	0.0161466
2790.49	0.0153737
2800.13	0.0152001
2809.78	0.0155043
2819.42	0.0153999
2829.06	0.017592
2838.7	0.0165599
2848.34	0.00815553
2857.99	0.00788062
2867.63	0.0153091
2877.27	0.0148578
2886.91	0.0159454
2896.56	0.0135623
2906.2	0.00992234
2915.84	0.00317454
2925.48	-0.00180845
2935.13	0.00546309
2944.77	0.0129833
2954.41	0.0148758
2964.05	0.0175149
2973.7	0.0206663
2983.34	0.0221064
2992.98	0.022866
3002.62	0.0259709
3012.26	0.0273169
3021.91	0.0262698
3031.55	0.0267579
3041.19	0.0261791
3050.83	0.0281523
3060.48	0.0304092
3070.12	0.03105
3079.76	0.0318992
3089.4	0.0319692
3099.05	0.0320613
3108.69	0.0330025
3118.33	0.0343147
3127.97	0.0349082
3137.61	0.0370581
3147.26	0.036712
3156.9	0.0360604
3166.54	0.0383966
3176.18	0.0372039
3185.83	0.0379879
3195.47	0.0381306
3205.11	0.0379081
3214.75	0.0368258
3224.4	0.0387767
3234.04	0.0353141
3243.68	0.0379173
3253.32	0.0384504
3262.97	0.0399572
3272.61	0.0381575
3282.25	0.0384428
3291.89	0.0399766
3301.53	0.0402994
3311.18	0.0405714
3320.82	0.0399552
3330.46	0.0392927
3340.1	0.0391548
3349.75	0.0411479
3359.39	0.0425176
3369.03	0.0404356
3378.67	0.0405547
3388.32	0.0396158
3397.96	0.0416879
3407.6	0.042506
3417.24	0.0443997
3426.89	0.0390311
3436.53	0.0406098
3446.17	0.04042
3455.81	0.0390594
3465.45	0.0394062
3475.1	0.0359571
3484.74	0.0405378
3494.38	0.0409528
3504.02	0.0383934
3513.67	0.0381913
3523.31	0.0390706
3532.95	0.0391528
3542.59	0.039422
3552.24	0.0363356
3561.88	0.0366787
3571.52	0.0367992
3581.16	0.0354895
3590.8	0.0305843
3600.45	0.0346358
3610.09	0.0319464
3619.73	0.0357073
3629.37	0.0297087
3639.02	0.0313196
3648.66	0.0279623
3658.3	0.0309589
3667.94	0.0310772
3677.59	0.0307188
3687.23	0.0274056
3696.87	0.0343222
3706.51	0.0355125
3716.16	0.035405
3725.8	0.0345609
3735.44	0.0327016
3745.08	0.0398043
3754.72	0.0333927
3764.37	0.0371147
3774.01	0.0324598
3783.65	0.033232
3793.29	0.0352333
3802.94	0.0350518
3812.58	0.0351884
3822.22	0.0375014
3831.86	0.0323068
3841.51	0.0367124
3851.15	0.03799
3860.79	0.0400822
3870.43	0.0342935
3880.07	0.0341423
3889.72	0.0395415
3899.36	0.0385037
3909	0.0385415
3918.64	0.0386987
3928.29	0.0344779
3937.93	0.0346612
3947.57	0.0382568
3957.21	0.0367285
3966.86	0.0371322
3976.5	0.0360354
3986.14	0.0380884
3995.78	0.0410105
