Measurement: Infrared, Infrared Data Processed
Mineral: Siegenite
Rruff sample: R050092
Ideal chemistry: Co^2+^Ni^3+^_2_S^2-^_4_
Locality: Bunker Hill mine, Jasper County, Missouri, USA (note that some people think this may be incorrect)
Source: Rock Currier
Description: Silver metallic octahedra coating chalcopyrite
x	intensity
399.193	0
408.835	0.233428
418.477	0.244066
428.12	0.240249
437.762	0.247182
447.404	0.247452
457.047	0.252157
466.689	0.258085
476.331	0.258461
485.974	0.261281
495.616	0.264966
505.258	0.266719
514.901	0.269075
524.543	0.2708
534.185	0.2734
543.828	0.275623
553.47	0.277183
563.112	0.279983
572.755	0.280505
582.397	0.283189
592.039	0.284863
601.682	0.285527
611.324	0.287677
620.966	0.288514
630.609	0.2879
640.251	0.288364
649.893	0.289749
659.536	0.290867
669.178	0.291665
678.82	0.292395
688.463	0.293769
698.105	0.295066
707.747	0.296319
717.39	0.299166
727.032	0.300339
736.674	0.301602
746.317	0.303974
755.959	0.305735
765.601	0.307235
775.244	0.308315
784.886	0.310241
794.528	0.312199
804.171	0.314085
813.813	0.315189
823.455	0.31741
833.098	0.318769
842.74	0.320243
852.382	0.321239
862.025	0.323257
871.667	0.324688
881.309	0.326636
890.952	0.328148
900.594	0.330023
910.236	0.331957
919.879	0.333655
929.521	0.335289
939.163	0.337378
948.806	0.339487
958.448	0.341484
968.09	0.343363
977.733	0.345996
987.375	0.346892
997.017	0.348793
1006.66	0.349599
1016.3	0.35047
1025.94	0.351757
1035.59	0.353077
1045.23	0.35456
1054.87	0.356363
1064.51	0.357246
1074.16	0.358086
1083.8	0.357933
1093.44	0.357066
1103.08	0.356157
1112.72	0.35513
1122.37	0.353403
1132.01	0.352035
1141.65	0.351855
1151.3	0.351378
1160.94	0.351023
1170.58	0.351506
1180.22	0.352219
1189.86	0.352852
1199.51	0.353433
1209.15	0.353237
1218.79	0.353321
1228.43	0.354108
1238.08	0.355739
1247.72	0.357431
1257.36	0.359463
1267	0.360764
1276.64	0.362913
1286.29	0.364487
1295.93	0.366102
1305.57	0.367919
1315.21	0.369237
1324.86	0.370307
1334.5	0.372162
1344.14	0.373628
1353.78	0.374888
1363.43	0.376018
1373.07	0.377391
1382.71	0.378931
1392.35	0.379427
1401.99	0.381041
1411.64	0.382045
1421.28	0.382843
1430.92	0.383606
1440.57	0.384701
1450.21	0.386042
1459.85	0.386643
1469.49	0.387447
1479.13	0.388848
1488.78	0.390093
1498.42	0.391333
1508.06	0.392249
1517.7	0.393308
1527.35	0.39501
1536.99	0.395515
1546.63	0.396857
1556.27	0.39761
1565.91	0.398782
1575.56	0.399225
1585.2	0.399741
1594.84	0.400576
1604.48	0.401748
1614.13	0.402673
1623.77	0.403209
1633.41	0.404094
1643.05	0.404198
1652.7	0.403853
1662.34	0.40466
1671.98	0.40449
1681.62	0.405413
1691.27	0.406246
1700.91	0.406626
1710.55	0.40847
1720.19	0.409275
1729.84	0.409797
1739.48	0.410519
1749.12	0.411332
1758.76	0.411172
1768.4	0.411639
1778.05	0.412128
1787.69	0.412313
1797.33	0.413652
1806.97	0.413659
1816.62	0.414045
1826.26	0.414418
1835.9	0.41555
1845.54	0.414773
1855.18	0.415911
1864.83	0.416221
1874.47	0.417407
1884.11	0.416827
1893.75	0.416365
1903.4	0.416913
1913.04	0.41605
1922.68	0.415926
1932.32	0.415864
1941.97	0.414533
1951.61	0.412269
1961.25	0.409539
1970.89	0.408436
1980.54	0.409491
1990.18	0.409799
1999.82	0.412225
2009.46	0.410042
2019.11	0.406336
2028.75	0.409297
2038.39	0.416977
2048.03	0.418693
2057.67	0.422167
2067.32	0.424877
2076.96	0.427038
2086.6	0.428844
2096.24	0.428648
2105.89	0.43285
2115.53	0.432215
2125.17	0.43078
2134.81	0.428204
2144.45	0.425071
2154.1	0.414941
2163.74	0.422775
2173.38	0.423883
2183.02	0.426528
2192.67	0.430377
2202.31	0.43271
2211.95	0.433228
2221.59	0.437245
2231.24	0.437702
2240.88	0.437895
2250.52	0.441173
2260.16	0.443273
2269.8	0.445354
2279.45	0.448652
2289.09	0.45127
2298.73	0.453209
2308.38	0.455132
2318.02	0.456224
2327.66	0.457614
2337.3	0.45757
2346.94	0.457778
2356.59	0.458184
2366.23	0.457997
2375.87	0.457678
2385.51	0.459255
2395.16	0.459924
2404.8	0.460014
2414.44	0.460759
2424.08	0.462116
2433.72	0.461672
2443.37	0.462255
2453.01	0.463862
2462.65	0.464677
2472.29	0.464091
2481.94	0.464479
2491.58	0.46629
2501.22	0.466856
2510.86	0.467285
2520.51	0.468905
2530.15	0.469075
2539.79	0.470323
2549.43	0.470102
2559.07	0.473004
2568.72	0.471971
2578.36	0.472002
2588	0.473859
2597.64	0.476148
2607.29	0.477494
2616.93	0.478301
2626.57	0.480152
2636.21	0.481652
2645.86	0.483545
2655.5	0.484475
2665.14	0.484868
2674.78	0.48553
2684.43	0.486739
2694.07	0.48742
2703.71	0.487302
2713.35	0.487193
2722.99	0.48872
2732.64	0.489141
2742.28	0.489376
2751.92	0.490434
2761.56	0.491385
2771.21	0.49135
2780.85	0.49202
2790.49	0.493546
2800.13	0.493863
2809.78	0.494576
2819.42	0.494024
2829.06	0.495622
2838.7	0.495929
2848.34	0.49816
2857.99	0.495431
2867.63	0.496989
2877.27	0.498269
2886.91	0.498256
2896.56	0.500348
2906.2	0.501062
2915.84	0.502121
2925.48	0.500306
2935.13	0.498814
2944.77	0.499224
2954.41	0.500182
2964.05	0.50006
2973.7	0.500281
2983.34	0.501081
2992.98	0.501884
3002.62	0.503584
3012.26	0.503471
3021.91	0.504195
3031.55	0.506055
3041.19	0.50539
3050.83	0.507391
3060.48	0.50796
3070.12	0.507815
3079.76	0.508715
3089.4	0.509471
3099.05	0.509324
3108.69	0.510831
3118.33	0.511001
3127.97	0.510849
3137.61	0.511255
3147.26	0.511159
3156.9	0.513959
3166.54	0.513277
3176.18	0.513805
3185.83	0.512952
3195.47	0.51598
3205.11	0.516682
3214.75	0.514147
3224.4	0.516152
3234.04	0.517244
3243.68	0.516999
3253.32	0.516931
3262.97	0.517955
3272.61	0.519904
3282.25	0.520384
3291.89	0.518841
3301.53	0.521786
3311.18	0.520869
3320.82	0.52095
3330.46	0.521918
3340.1	0.522112
3349.75	0.521615
3359.39	0.521786
3369.03	0.520815
3378.67	0.522708
3388.32	0.522927
3397.96	0.523185
3407.6	0.523551
3417.24	0.522902
3426.89	0.522896
3436.53	0.522542
3446.17	0.522416
3455.81	0.52455
3465.45	0.524681
3475.1	0.524436
3484.74	0.523763
3494.38	0.523141
3504.02	0.52441
3513.67	0.523951
3523.31	0.525269
3532.95	0.52632
3542.59	0.525971
3552.24	0.525754
3561.88	0.527857
3571.52	0.527027
3581.16	0.527228
3590.8	0.528561
3600.45	0.528575
3610.09	0.531517
3619.73	0.531376
3629.37	0.53269
3639.02	0.534352
3648.66	0.532323
3658.3	0.534625
3667.94	0.53447
3677.59	0.536714
3687.23	0.537727
3696.87	0.53765
3706.51	0.5379
3716.16	0.542327
3725.8	0.543672
3735.44	0.541512
3745.08	0.542132
3754.72	0.542661
3764.37	0.543217
3774.01	0.544331
3783.65	0.54659
3793.29	0.548079
3802.94	0.547355
3812.58	0.54794
3822.22	0.550493
3831.86	0.550167
3841.51	0.551258
3851.15	0.550869
3860.79	0.551076
3870.43	0.552985
3880.07	0.553558
3889.72	0.554907
3899.36	0.552927
3909	0.555031
3918.64	0.553717
3928.29	0.555576
3937.93	0.557841
3947.57	0.558635
3957.21	0.559102
3966.86	0.557919
3976.5	0.558928
3986.14	0.558627
3995.78	0.559527
