Measurement: Infrared, Infrared Data Processed
Mineral: Sphalerite
Rruff sample: R040136
Ideal chemistry: Zn^2+^S^2-^
Locality: Hilltop mine, Paradise, Cochise County, Arizona, USA
Source: University of Arizona Mineral Museum
Description: Olive green fragments
Measured chemistry: Zn_0.98_S
x	intensity
399.193	0
408.835	0.0125092
418.477	0.0154763
428.12	0.0141557
437.762	0.0138269
447.404	0.0149775
457.047	0.0163777
466.689	0.0198705
476.331	0.0232842
485.974	0.0256713
495.616	0.0262922
505.258	0.0263367
514.901	0.0284899
524.543	0.0306987
534.185	0.0329545
543.828	0.0361478
553.47	0.0406206
563.112	0.044454
572.755	0.0477186
582.397	0.0519222
592.039	0.0556188
601.682	0.0582066
611.324	0.0604392
620.966	0.061233
630.609	0.0655054
640.251	0.0678295
649.893	0.0648452
659.536	0.0673485
669.178	0.0703282
678.82	0.0709745
688.463	0.0727119
698.105	0.075096
707.747	0.0764228
717.39	0.078841
727.032	0.0809223
736.674	0.0820798
746.317	0.0842481
755.959	0.0859272
765.601	0.0879227
775.244	0.090245
784.886	0.0917752
794.528	0.0932843
804.171	0.0949271
813.813	0.0964038
823.455	0.0980215
833.098	0.0988044
842.74	0.100325
852.382	0.102313
862.025	0.10474
871.667	0.107218
881.309	0.107852
890.952	0.109738
900.594	0.11171
910.236	0.113803
919.879	0.115227
929.521	0.116872
939.163	0.119342
948.806	0.121194
958.448	0.12173
968.09	0.123399
977.733	0.125424
987.375	0.126772
997.017	0.128226
1006.66	0.130264
1016.3	0.131898
1025.94	0.133081
1035.59	0.134369
1045.23	0.136345
1054.87	0.138848
1064.51	0.140116
1074.16	0.142036
1083.8	0.143727
1093.44	0.145602
1103.08	0.146561
1112.72	0.147991
1122.37	0.148147
1132.01	0.148021
1141.65	0.148189
1151.3	0.149024
1160.94	0.149042
1170.58	0.149321
1180.22	0.148774
1189.86	0.148441
1199.51	0.147937
1209.15	0.147986
1218.79	0.147819
1228.43	0.147715
1238.08	0.148128
1247.72	0.14881
1257.36	0.148981
1267	0.149858
1276.64	0.150471
1286.29	0.151708
1295.93	0.152608
1305.57	0.154009
1315.21	0.155124
1324.86	0.156273
1334.5	0.157357
1344.14	0.159213
1353.78	0.160425
1363.43	0.162214
1373.07	0.163065
1382.71	0.164554
1392.35	0.165882
1401.99	0.168253
1411.64	0.171028
1421.28	0.173594
1430.92	0.175462
1440.57	0.176569
1450.21	0.176573
1459.85	0.175834
1469.49	0.175338
1479.13	0.171807
1488.78	0.170584
1498.42	0.170605
1508.06	0.171594
1517.7	0.173131
1527.35	0.176237
1536.99	0.179923
1546.63	0.182694
1556.27	0.183884
1565.91	0.185288
1575.56	0.185263
1585.2	0.186681
1594.84	0.186092
1604.48	0.18452
1614.13	0.1836
1623.77	0.183139
1633.41	0.183328
1643.05	0.183693
1652.7	0.18075
1662.34	0.183535
1671.98	0.183617
1681.62	0.183395
1691.27	0.183844
1700.91	0.183042
1710.55	0.184965
1720.19	0.18598
1729.84	0.186006
1739.48	0.186249
1749.12	0.186888
1758.76	0.187388
1768.4	0.187368
1778.05	0.188903
1787.69	0.189421
1797.33	0.19023
1806.97	0.190998
1816.62	0.191156
1826.26	0.192556
1835.9	0.193031
1845.54	0.194294
1855.18	0.195158
1864.83	0.196166
1874.47	0.197585
1884.11	0.197411
1893.76	0.198751
1903.4	0.199351
1913.04	0.199383
1922.68	0.199579
1932.32	0.200698
1941.97	0.20106
1951.61	0.200711
1961.25	0.202282
1970.89	0.203192
1980.54	0.205821
1990.18	0.205672
1999.82	0.205771
2009.46	0.204259
2019.11	0.206693
2028.75	0.208111
2038.39	0.205749
2048.03	0.208825
2057.67	0.209468
2067.32	0.210868
2076.96	0.21431
2086.6	0.211998
2096.24	0.213864
2105.89	0.214431
2115.53	0.217041
2125.17	0.21196
2134.81	0.214786
2144.45	0.214671
2154.1	0.21168
2163.74	0.216938
2173.38	0.219024
2183.02	0.220928
2192.67	0.220995
2202.31	0.219908
2211.95	0.221351
2221.59	0.220029
2231.24	0.221992
2240.88	0.222469
2250.52	0.221685
2260.16	0.225664
2269.8	0.225605
2279.45	0.22681
2289.09	0.225205
2298.73	0.226026
2308.38	0.227656
2318.02	0.228533
2327.66	0.228988
2337.3	0.229152
2346.94	0.230387
2356.59	0.230783
2366.23	0.232003
2375.87	0.231439
2385.51	0.231792
2395.16	0.233674
2404.8	0.23388
2414.44	0.234658
2424.08	0.23513
2433.72	0.236467
2443.37	0.237511
2453.01	0.238284
2462.65	0.238821
2472.3	0.239125
2481.94	0.240457
2491.58	0.240272
2501.22	0.242454
2510.86	0.241754
2520.51	0.24278
2530.15	0.24375
2539.79	0.243644
2549.43	0.244573
2559.08	0.245341
2568.72	0.246699
2578.36	0.247282
2588	0.247861
2597.64	0.248429
2607.29	0.248478
2616.93	0.248639
2626.57	0.249509
2636.21	0.250849
2645.86	0.252331
2655.5	0.253036
2665.14	0.253571
2674.78	0.253717
2684.43	0.255066
2694.07	0.25587
2703.71	0.256927
2713.35	0.25711
2722.99	0.258426
2732.64	0.260866
2742.28	0.260354
2751.92	0.261221
2761.57	0.26194
2771.21	0.26255
2780.85	0.263303
2790.49	0.264701
2800.13	0.266713
2809.78	0.266339
2819.42	0.266398
2829.06	0.268574
2838.7	0.26995
2848.35	0.271674
2857.99	0.273407
2867.63	0.274922
2877.27	0.274868
2886.91	0.275477
2896.56	0.275703
2906.2	0.278183
2915.84	0.28048
2925.48	0.28288
2935.13	0.28273
2944.77	0.280134
2954.41	0.282076
2964.05	0.282716
2973.7	0.281804
2983.34	0.281094
2992.98	0.281355
3002.62	0.28132
3012.26	0.282143
3021.91	0.281806
3031.55	0.282943
3041.19	0.284143
3050.84	0.282228
3060.48	0.284367
3070.12	0.28551
3079.76	0.286763
3089.4	0.288126
3099.05	0.288037
3108.69	0.288665
3118.33	0.28982
3127.97	0.289802
3137.62	0.290706
3147.26	0.292402
3156.9	0.292986
3166.54	0.293826
3176.18	0.292878
3185.83	0.294357
3195.47	0.295572
3205.11	0.296625
3214.75	0.295395
3224.4	0.299113
3234.04	0.298846
3243.68	0.298555
3253.32	0.300454
3262.97	0.300288
3272.61	0.30162
3282.25	0.303067
3291.89	0.301976
3301.53	0.302303
3311.18	0.305375
3320.82	0.306276
3330.46	0.306939
3340.11	0.306202
3349.75	0.307158
3359.39	0.308589
3369.03	0.308057
3378.67	0.307916
3388.32	0.308001
3397.96	0.308593
3407.6	0.310628
3417.24	0.308549
3426.89	0.310169
3436.53	0.310979
3446.17	0.311487
3455.81	0.309058
3465.45	0.310382
3475.1	0.309247
3484.74	0.309526
3494.38	0.312511
3504.02	0.312193
3513.67	0.311238
3523.31	0.310443
3532.95	0.309489
3542.59	0.308263
3552.24	0.310964
3561.88	0.311757
3571.52	0.310113
3581.16	0.31094
3590.8	0.308592
3600.45	0.31101
3610.09	0.311175
3619.73	0.30959
3629.38	0.308748
3639.02	0.311842
3648.66	0.30914
3658.3	0.314769
3667.94	0.312602
3677.59	0.312821
3687.23	0.315713
3696.87	0.314137
3706.51	0.315054
3716.16	0.314954
3725.8	0.315706
3735.44	0.313391
3745.08	0.312583
3754.72	0.318242
3764.37	0.319652
3774.01	0.322355
3783.65	0.320558
3793.29	0.321391
3802.94	0.319339
3812.58	0.321311
3822.22	0.31887
3831.86	0.322754
3841.51	0.323809
3851.15	0.323207
3860.79	0.323077
3870.43	0.323814
3880.07	0.323266
3889.72	0.327351
3899.36	0.325655
3909	0.32903
3918.64	0.329533
3928.29	0.330117
3937.93	0.330589
3947.57	0.33142
3957.21	0.330208
3966.86	0.332089
3976.5	0.331986
3986.14	0.331561
3995.78	0.333747
