Measurement: Infrared, Infrared Data Processed
Mineral: Sphalerite
Rruff sample: R050005
Ideal chemistry: Zn^2+^S^2-^
Locality: Taolin mine, Yueyang, Linxing, Hunan Province, China
Source: Eugene Schlepp
Description: Reddish brown crystals
Measured chemistry: (Zn_.997_Fe_.003_)S
x	intensity
399.193	0.010602
408.835	0.0120048
418.477	0.0137533
428.12	0.0135654
437.762	0.0159739
447.404	0.0217376
457.047	0.0236811
466.689	0.0299539
476.331	0.034731
485.974	0.035336
495.616	0.0347914
505.258	0.0363606
514.901	0.0388644
524.543	0.0432514
534.185	0.049126
543.828	0.0539586
553.47	0.0548372
563.112	0.0588539
572.755	0.0625512
582.397	0.0653073
592.039	0.0686503
601.682	0.0714363
611.324	0.0744125
620.966	0.0765071
630.609	0.0817292
640.251	0.083728
649.893	0.0830477
659.536	0.0867322
669.178	0.0905726
678.82	0.0944452
688.463	0.0955113
698.105	0.0974769
707.747	0.0995647
717.39	0.103085
727.032	0.104883
736.674	0.106398
746.317	0.109298
755.959	0.111807
765.601	0.114312
775.244	0.117811
784.886	0.120483
794.528	0.121192
804.171	0.122762
813.813	0.123658
823.455	0.123619
833.098	0.12459
842.74	0.12637
852.382	0.128671
862.025	0.131191
871.667	0.134626
881.309	0.138656
890.952	0.138462
900.594	0.141023
910.236	0.145477
919.879	0.15112
929.521	0.155515
939.163	0.153746
948.806	0.154752
958.448	0.153896
968.09	0.156733
977.733	0.158216
987.375	0.15906
997.017	0.161359
1006.66	0.160065
1016.3	0.159928
1025.94	0.161403
1035.59	0.161739
1045.23	0.161172
1054.87	0.162877
1064.51	0.165733
1074.16	0.169909
1083.8	0.172388
1093.44	0.17355
1103.08	0.170369
1112.72	0.165511
1122.37	0.164232
1132.01	0.164585
1141.65	0.165537
1151.3	0.16567
1160.94	0.165519
1170.58	0.165679
1180.22	0.165732
1189.86	0.166051
1199.51	0.16655
1209.15	0.166692
1218.79	0.16699
1228.43	0.167673
1238.08	0.168725
1247.72	0.169155
1257.36	0.169543
1267	0.170317
1276.64	0.171533
1286.29	0.172675
1295.93	0.173703
1305.57	0.174912
1315.21	0.176233
1324.86	0.177218
1334.5	0.178288
1344.14	0.179521
1353.78	0.180657
1363.43	0.181603
1373.07	0.18232
1382.71	0.183253
1392.35	0.184198
1401.99	0.185478
1411.64	0.186901
1421.28	0.187558
1430.92	0.18855
1440.57	0.189405
1450.21	0.190353
1459.85	0.191166
1469.49	0.190898
1479.13	0.190154
1488.78	0.190753
1498.42	0.191917
1508.06	0.193287
1517.7	0.194535
1527.35	0.196509
1536.99	0.198194
1546.63	0.199882
1556.27	0.201087
1565.91	0.201955
1575.56	0.202682
1585.2	0.203544
1594.84	0.203357
1604.48	0.203354
1614.13	0.203473
1623.77	0.20364
1633.41	0.203911
1643.05	0.203801
1652.7	0.204875
1662.34	0.204816
1671.98	0.204902
1681.62	0.20556
1691.27	0.206022
1700.91	0.206064
1710.55	0.206049
1720.19	0.207638
1729.84	0.20843
1739.48	0.208979
1749.12	0.208959
1758.76	0.209597
1768.4	0.210627
1778.05	0.211224
1787.69	0.21205
1797.33	0.212486
1806.97	0.213409
1816.62	0.214221
1826.26	0.215403
1835.9	0.215757
1845.54	0.216973
1855.18	0.217476
1864.83	0.218056
1874.47	0.218667
1884.11	0.219321
1893.75	0.219851
1903.4	0.220956
1913.04	0.22229
1922.68	0.221469
1932.32	0.223254
1941.97	0.222525
1951.61	0.222349
1961.25	0.222983
1970.89	0.220642
1980.54	0.225582
1990.18	0.225048
1999.82	0.225803
2009.46	0.223901
2019.11	0.22381
2028.75	0.22482
2038.39	0.22653
2048.03	0.228168
2057.67	0.231163
2067.32	0.231497
2076.96	0.233173
2086.6	0.231517
2096.24	0.233505
2105.89	0.234568
2115.53	0.235507
2125.17	0.235258
2134.81	0.233229
2144.45	0.233911
2154.1	0.231917
2163.74	0.237661
2173.38	0.235854
2183.02	0.236388
2192.67	0.238346
2202.31	0.239533
2211.95	0.239345
2221.59	0.240839
2231.24	0.240399
2240.88	0.242833
2250.52	0.243429
2260.16	0.244813
2269.8	0.245217
2279.45	0.246969
2289.09	0.247718
2298.73	0.248322
2308.38	0.248747
2318.02	0.249394
2327.66	0.24917
2337.3	0.249413
2346.94	0.250147
2356.59	0.250708
2366.23	0.251198
2375.87	0.251589
2385.51	0.25195
2395.16	0.252635
2404.8	0.253167
2414.44	0.254358
2424.08	0.25463
2433.72	0.255734
2443.37	0.256028
2453.01	0.256499
2462.65	0.257278
2472.29	0.257044
2481.94	0.258104
2491.58	0.258797
2501.22	0.259085
2510.86	0.259719
2520.51	0.260101
2530.15	0.261097
2539.79	0.261885
2549.43	0.262764
2559.07	0.262891
2568.72	0.263195
2578.36	0.263854
2588	0.264629
2597.64	0.266297
2607.29	0.266715
2616.93	0.267213
2626.57	0.267957
2636.21	0.26919
2645.86	0.269028
2655.5	0.270397
2665.14	0.270468
2674.78	0.270006
2684.43	0.271197
2694.07	0.272051
2703.71	0.272648
2713.35	0.273312
2722.99	0.274027
2732.64	0.274673
2742.28	0.27501
2751.92	0.276619
2761.56	0.27701
2771.21	0.277734
2780.85	0.278633
2790.49	0.278626
2800.13	0.279303
2809.78	0.280018
2819.42	0.28067
2829.06	0.281483
2838.7	0.282815
2848.34	0.282048
2857.99	0.281502
2867.63	0.281993
2877.27	0.283257
2886.91	0.284693
2896.56	0.285006
2906.2	0.28523
2915.84	0.285263
2925.48	0.281816
2935.13	0.282719
2944.77	0.283938
2954.41	0.283266
2964.05	0.284471
2973.7	0.284355
2983.34	0.285724
2992.98	0.286749
3002.62	0.287341
3012.26	0.28926
3021.91	0.290077
3031.55	0.291307
3041.19	0.290894
3050.83	0.292656
3060.48	0.292938
3070.12	0.292787
3079.76	0.293308
3089.4	0.294049
3099.05	0.295126
3108.69	0.295386
3118.33	0.296176
3127.97	0.297469
3137.61	0.297237
3147.26	0.2982
3156.9	0.300115
3166.54	0.299738
3176.18	0.300429
3185.83	0.302163
3195.47	0.302067
3205.11	0.302756
3214.75	0.303733
3224.4	0.304521
3234.04	0.306127
3243.68	0.306706
3253.32	0.306265
3262.97	0.307855
3272.61	0.308538
3282.25	0.308747
3291.89	0.309675
3301.53	0.309229
3311.18	0.310003
3320.82	0.310486
3330.46	0.311032
3340.1	0.311182
3349.75	0.311648
3359.39	0.31256
3369.03	0.311514
3378.67	0.311191
3388.32	0.312938
3397.96	0.31254
3407.6	0.313484
3417.24	0.314895
3426.89	0.314093
3436.53	0.313677
3446.17	0.313273
3455.81	0.314394
3465.45	0.314553
3475.1	0.314088
3484.74	0.314833
3494.38	0.315813
3504.02	0.314588
3513.67	0.316059
3523.31	0.316563
3532.95	0.317455
3542.59	0.316493
3552.24	0.315532
3561.88	0.318046
3571.52	0.31785
3581.16	0.317072
3590.8	0.318591
3600.45	0.320446
3610.09	0.319125
3619.73	0.318256
3629.37	0.321021
3639.02	0.321588
3648.66	0.320927
3658.3	0.322373
3667.94	0.319871
3677.59	0.322181
3687.23	0.323804
3696.87	0.32617
3706.51	0.32382
3716.16	0.324613
3725.8	0.326238
3735.44	0.324822
3745.08	0.325552
3754.72	0.327384
3764.37	0.326587
3774.01	0.329303
3783.65	0.328431
3793.29	0.327122
3802.94	0.330005
3812.58	0.330689
3822.22	0.329896
3831.86	0.332245
3841.51	0.330505
3851.15	0.331676
3860.79	0.331778
3870.43	0.33415
3880.07	0.333079
3889.72	0.334768
3899.36	0.336079
3909	0.334676
3918.64	0.334548
3928.29	0.335585
3937.93	0.337417
3947.57	0.334539
3957.21	0.337963
3966.86	0.336144
3976.5	0.338413
3986.14	0.340895
3995.78	0.34222
