Measurement: Infrared, Infrared Data Processed
Mineral: Spinel
Rruff sample: R050184
Ideal chemistry: MgAl_2_O_4_
Locality: Pein Pyit, Mogok, Burma
Source: Marcus Origlieri
Description: Red crystal in calcite, associated with yellowish-green clinohumite, R050183
Measured chemistry: Mg_1.00_(Al_1.99_Cr_0.01_)_Î£=2_O_4_; trace amounts of V
x	intensity
50.1401	0.00149974
52.0686	0.00680209
53.9971	0.00578636
55.9255	0.00774901
57.854	0.0123494
59.7825	0.00907751
61.7109	0.00601532
63.6394	0.00824972
65.5679	0.00926231
67.4963	0.00983067
69.4248	0.0110372
71.3533	0.0122873
73.2817	0.0132589
75.2102	0.0140207
77.1387	0.0149762
79.0671	0.0148144
80.9956	0.0150197
82.9241	0.0163563
84.8525	0.0174526
86.781	0.0177119
88.7095	0.0175147
90.6379	0.0188737
92.5664	0.0195308
94.4948	0.0194544
96.4233	0.0206532
98.3518	0.022213
100.28	0.0226218
102.209	0.0233162
104.137	0.0241404
106.066	0.025427
107.994	0.026445
109.923	0.0269934
111.851	0.0269802
113.779	0.0269097
115.708	0.0270892
117.636	0.0273276
119.565	0.0280199
121.493	0.0285833
123.422	0.029178
125.35	0.0307526
127.279	0.0319625
129.207	0.0326253
131.136	0.0337879
133.064	0.0350828
134.993	0.0352839
136.921	0.0356277
138.85	0.0363592
140.778	0.0366245
142.707	0.0367076
144.635	0.0366678
146.563	0.0371478
148.492	0.038663
150.42	0.0398413
152.349	0.0406079
154.277	0.0412796
156.206	0.0416193
158.134	0.0424056
160.063	0.043248
161.991	0.0440848
163.92	0.0448004
165.848	0.0451534
167.777	0.0459367
169.705	0.0466553
171.633	0.0469468
173.562	0.0476825
175.49	0.0481016
177.419	0.0476489
179.347	0.047959
181.276	0.0488415
183.204	0.0495659
185.133	0.0505594
187.061	0.0517539
188.99	0.0522352
190.918	0.0522886
192.847	0.0532464
194.775	0.0547031
196.704	0.0550887
198.632	0.0551799
200.56	0.0552282
202.489	0.0559861
204.417	0.0567919
206.346	0.0577428
208.274	0.0584411
210.203	0.0586098
212.131	0.0589301
214.06	0.0595695
215.988	0.0605651
217.917	0.06195
219.845	0.0632955
221.774	0.0642309
223.702	0.064839
225.631	0.0654184
227.559	0.0659083
229.488	0.0658287
231.416	0.0662419
233.344	0.0667192
235.273	0.0670619
237.201	0.0671746
239.13	0.0671123
241.058	0.0674174
242.987	0.0679527
244.915	0.0684557
246.844	0.0689051
248.772	0.0696179
250.701	0.0702506
252.629	0.0717729
254.558	0.0730329
256.486	0.0727825
258.414	0.072885
260.343	0.0733533
262.271	0.0737365
264.2	0.0745651
266.128	0.0754937
268.057	0.0763135
269.985	0.0771729
271.914	0.0779336
273.842	0.079156
275.771	0.0809843
277.699	0.0825508
279.628	0.0832493
281.556	0.0833456
283.485	0.0837238
285.413	0.0839345
287.341	0.0844226
289.27	0.0849892
291.198	0.0857785
293.127	0.086656
295.055	0.0875776
296.984	0.0887078
298.912	0.0904806
300.841	0.09164
302.769	0.092306
304.698	0.0913697
306.626	0.0893926
308.555	0.0856648
310.483	0.0792692
312.411	0.0726534
314.34	0.0704199
316.269	0.0724289
318.197	0.0756067
320.125	0.0784337
322.054	0.080626
323.982	0.0824779
325.911	0.0842107
327.839	0.0856208
329.768	0.0863068
331.696	0.0869743
333.625	0.0876747
335.553	0.0886536
337.482	0.0899342
339.41	0.0904517
341.339	0.0910033
343.267	0.0919464
345.195	0.092844
347.124	0.0937461
349.052	0.095099
350.981	0.0963909
352.909	0.0969825
354.838	0.0975438
356.766	0.098272
358.695	0.0985409
360.623	0.0986116
362.552	0.0988879
364.48	0.0987916
366.409	0.0985349
368.337	0.0986027
370.265	0.0987673
372.194	0.0993636
374.122	0.10019
376.051	0.100319
377.979	0.100157
379.908	0.100596
381.836	0.101041
383.765	0.101454
385.693	0.101536
387.622	0.101632
389.55	0.102405
391.479	0.103261
393.407	0.103882
395.336	0.104171
397.264	0.10475
399.192	0.105689
401.121	0.106436
403.049	0.106969
404.978	0.107538
406.906	0.10828
408.835	0.108583
410.763	0.108952
412.692	0.109759
414.62	0.110757
416.549	0.111717
418.477	0.112493
420.406	0.113081
422.334	0.113701
424.262	0.114391
426.191	0.11533
428.12	0.116209
430.048	0.117136
431.976	0.117666
433.905	0.11829
435.833	0.119284
437.762	0.120165
439.69	0.120298
441.619	0.120151
443.547	0.120319
445.476	0.120562
447.404	0.120563
449.333	0.120552
451.261	0.120682
453.19	0.120945
455.118	0.121053
457.046	0.121243
458.975	0.121022
460.903	0.121002
462.832	0.121369
464.76	0.121761
466.689	0.122015
468.617	0.122499
470.546	0.122489
472.474	0.122125
474.403	0.121999
476.331	0.122266
478.26	0.122542
480.188	0.122991
482.116	0.123362
484.045	0.123617
485.974	0.123946
487.902	0.124779
489.83	0.125392
491.759	0.12607
493.687	0.12675
495.616	0.127109
497.544	0.127481
499.473	0.127598
501.401	0.127658
503.33	0.128068
505.258	0.128427
507.187	0.128686
509.115	0.128639
511.043	0.128551
512.972	0.128548
514.9	0.128886
516.829	0.128599
518.757	0.128444
520.686	0.127731
522.614	0.126696
524.543	0.125729
526.471	0.124891
528.4	0.124228
530.328	0.123017
532.257	0.121789
534.185	0.120645
536.114	0.119034
538.042	0.117196
539.971	0.115814
541.899	0.1148
543.827	0.11328
545.756	0.111878
547.684	0.110931
549.613	0.109737
551.541	0.107921
553.47	0.106368
555.398	0.105049
557.327	0.103614
559.255	0.102265
561.184	0.100885
563.112	0.0991066
565.041	0.0971748
566.969	0.095577
568.898	0.0944329
570.826	0.0941663
572.755	0.0946392
574.683	0.0957424
576.611	0.0968202
578.54	0.0966821
580.468	0.0960567
582.397	0.094811
584.325	0.0927271
586.254	0.0908497
588.182	0.0885418
590.111	0.0858503
592.039	0.083295
593.968	0.0804918
595.896	0.0779823
597.824	0.0759912
599.753	0.0737653
601.682	0.0711135
603.61	0.068502
605.538	0.0664588
607.467	0.0646874
609.395	0.0626846
611.324	0.0614369
613.252	0.0613723
615.181	0.0611265
617.109	0.0608995
619.038	0.0616861
620.966	0.0628775
622.894	0.0643553
624.823	0.0670904
626.751	0.0708586
628.68	0.0751132
630.608	0.0792488
632.537	0.0833527
634.465	0.087395
636.394	0.0917557
638.322	0.0962644
640.251	0.100435
642.179	0.104241
644.108	0.107943
646.036	0.111694
647.965	0.115109
649.893	0.118062
651.822	0.120782
653.75	0.123125
655.678	0.124744
657.607	0.12638
659.535	0.127739
661.464	0.12872
663.392	0.129915
665.321	0.130966
667.249	0.131611
669.178	0.132404
671.106	0.13309
673.035	0.133671
674.963	0.134011
676.892	0.134434
678.82	0.135059
680.749	0.134695
682.677	0.133505
684.606	0.132751
686.534	0.131888
688.462	0.130792
690.391	0.130351
692.319	0.130536
694.248	0.130049
696.176	0.129068
698.105	0.127393
700.033	0.126336
