Measurement: Infrared, Infrared Data Processed
Mineral: Spinel
Rruff sample: R050259
Ideal chemistry: MgAl_2_O_4_
Locality: Mogok, Burma
Source: Marcus Origlieri
Description: Purple cut gemstone
Measured chemistry: (Mg_0.99_Zn_0.01_)_Σ=1_(Al_1.98_Fe^3+^_0.02_)_Σ=2_O_4_; trace amounts of Cr
x	intensity
50.1401	0.0154497
52.0686	0.00671187
53.9971	0.00562824
55.9255	0.00691599
57.854	0.0116289
59.7825	0.0111363
61.7109	0.00891121
63.6394	0.00948016
65.5679	0.0110081
67.4963	0.0120722
69.4248	0.010968
71.3533	0.010235
73.2817	0.0112091
75.2102	0.0126452
77.1387	0.0135734
79.0671	0.0147888
80.9956	0.0152729
82.9241	0.0156006
84.8525	0.0157331
86.781	0.0155838
88.7095	0.0162813
90.6379	0.017398
92.5664	0.0180483
94.4948	0.0180418
96.4233	0.0189385
98.3518	0.0190486
100.28	0.0188758
102.209	0.0193123
104.137	0.0199321
106.066	0.0203478
107.994	0.0214616
109.923	0.0217223
111.851	0.0214535
113.779	0.0214448
115.708	0.0220613
117.636	0.0226901
119.565	0.0234881
121.493	0.0237099
123.422	0.0235006
125.35	0.0239262
127.279	0.0252086
129.207	0.0267261
131.136	0.0271764
133.064	0.0276328
134.993	0.0278755
136.921	0.02767
138.85	0.0282042
140.778	0.0291133
142.707	0.0297391
144.635	0.0298667
146.563	0.0299898
148.492	0.0304671
150.42	0.0309217
152.349	0.0316257
154.277	0.0316947
156.206	0.0314333
158.134	0.0315679
160.063	0.0317484
161.991	0.0317678
163.92	0.0320924
165.848	0.0325047
167.777	0.03283
169.705	0.0331372
171.633	0.0329545
173.562	0.0329818
175.49	0.0332324
177.419	0.0336356
179.347	0.0342036
181.276	0.0346653
183.204	0.0346419
185.133	0.0348231
187.061	0.0348623
188.99	0.034758
190.918	0.0351284
192.847	0.0356193
194.775	0.0360988
196.704	0.0362259
198.632	0.036159
200.56	0.0364778
202.489	0.03674
204.417	0.036705
206.346	0.0368982
208.274	0.0373336
210.203	0.0376399
212.131	0.0377615
214.06	0.0380608
215.988	0.0381371
217.917	0.0380199
219.845	0.0385086
221.774	0.0390354
223.702	0.0393844
225.631	0.0395344
227.559	0.0396638
229.488	0.0400539
231.416	0.0400089
233.344	0.0396636
235.273	0.0397174
237.201	0.0396281
239.13	0.0397342
241.058	0.0401511
242.987	0.0404732
244.915	0.0406472
246.844	0.0407992
248.772	0.0409258
250.701	0.0411815
252.629	0.0413292
254.558	0.0414916
256.486	0.041728
258.414	0.0420164
260.343	0.0424264
262.271	0.0428205
264.2	0.0430448
266.128	0.0431896
268.057	0.0434699
269.985	0.0439568
271.914	0.0442412
273.842	0.044305
275.771	0.0443322
277.699	0.0448174
279.628	0.045003
281.556	0.0449655
283.485	0.045496
285.413	0.0457362
287.341	0.0455361
289.27	0.0458097
291.198	0.0459397
293.127	0.0460329
295.055	0.0464458
296.984	0.0469692
298.912	0.047317
300.841	0.0474515
302.769	0.047578
304.698	0.0470194
306.626	0.045925
308.555	0.0445967
310.483	0.0428181
312.411	0.0412497
314.34	0.0412517
316.269	0.0427517
318.197	0.0439754
320.125	0.0448644
322.054	0.0460192
323.982	0.0468276
325.911	0.0473043
327.839	0.0475918
329.768	0.0478252
331.696	0.0483644
333.625	0.0483907
335.553	0.0482982
337.482	0.0487568
339.41	0.0493236
341.339	0.0497093
343.267	0.0497701
345.195	0.049815
347.124	0.0501987
349.052	0.0503287
350.981	0.0505175
352.909	0.0508557
354.838	0.0511326
356.766	0.05127
358.695	0.0514981
360.623	0.0517806
362.552	0.0519538
364.48	0.051873
366.409	0.0520958
368.337	0.0524969
370.265	0.0528177
372.194	0.0530246
374.122	0.0530657
376.051	0.0531315
377.979	0.0535265
379.908	0.053542
381.836	0.0536476
383.765	0.0538768
385.693	0.053683
387.622	0.0535568
389.55	0.0538855
391.479	0.0541148
393.407	0.0542053
395.336	0.054477
397.264	0.0545571
399.192	0.0544994
401.121	0.0548946
403.049	0.0551375
404.978	0.0553182
406.906	0.0555034
408.835	0.0556301
410.763	0.055864
412.692	0.0560861
414.62	0.0561615
416.549	0.0561664
418.477	0.0562335
420.406	0.056519
422.334	0.0568563
424.262	0.0569908
426.191	0.0570816
428.12	0.0571985
430.048	0.0573267
431.976	0.0575912
433.905	0.0578457
435.833	0.0580168
437.762	0.0580935
439.69	0.0580041
441.619	0.0576874
443.547	0.057742
445.476	0.0580366
447.404	0.0583952
449.333	0.0583385
451.261	0.058254
453.19	0.0582601
455.118	0.0581048
457.046	0.0579536
458.975	0.0579048
460.903	0.0576848
462.832	0.0571657
464.76	0.0569557
466.689	0.0572005
468.617	0.0572289
470.546	0.0566487
472.474	0.0556092
474.403	0.055204
476.331	0.0552276
478.26	0.0555622
480.188	0.0555191
482.116	0.0556356
484.045	0.0562064
485.974	0.056558
487.902	0.0568481
489.83	0.0567915
491.759	0.0567912
493.687	0.0571593
495.616	0.057978
497.544	0.0585027
499.473	0.0588103
501.401	0.059103
503.33	0.0586225
505.258	0.0587877
507.187	0.059262
509.115	0.0590532
511.043	0.0586808
512.972	0.0588372
514.9	0.0592605
516.829	0.0597671
518.757	0.0602818
520.686	0.0606972
522.614	0.0603863
524.543	0.0601433
526.471	0.0599648
528.4	0.0599426
530.328	0.0600886
532.257	0.0599602
534.185	0.0598374
536.114	0.059935
538.042	0.0600472
539.971	0.0601637
541.899	0.0601316
543.827	0.0600127
545.756	0.0597802
547.684	0.0596991
549.613	0.0595867
551.541	0.0595219
553.47	0.0594761
555.398	0.0591835
557.327	0.0587157
559.255	0.0584782
561.184	0.0581379
563.112	0.0578597
565.041	0.0574617
566.969	0.056773
568.898	0.0562232
570.826	0.0561617
572.755	0.0561674
574.683	0.0564584
576.611	0.0572689
578.54	0.0576918
580.468	0.0577203
582.397	0.0576928
584.325	0.0572291
586.254	0.0562451
588.182	0.0555169
590.111	0.0547171
592.039	0.0533795
593.968	0.0520785
595.896	0.0503268
597.824	0.0485078
599.753	0.0465352
601.682	0.0450705
603.61	0.0437702
605.538	0.0421272
607.467	0.0412778
609.395	0.0413858
611.324	0.0402643
613.252	0.0389653
615.181	0.0391225
617.109	0.0395392
619.038	0.0393093
620.966	0.0395559
622.894	0.0405569
624.823	0.0429469
626.751	0.0460454
628.68	0.0490493
630.608	0.0515426
632.537	0.0539515
634.465	0.0560314
636.394	0.0577755
638.322	0.059563
640.251	0.0610567
642.179	0.0622876
644.108	0.0636389
646.036	0.0646014
647.965	0.065498
649.893	0.0662151
651.822	0.0665375
653.75	0.0668705
655.678	0.0675178
657.607	0.068382
659.535	0.0688356
661.464	0.0682715
663.392	0.0680648
665.321	0.0688114
667.249	0.0695559
669.178	0.0696917
671.106	0.0699812
673.035	0.070212
674.963	0.0708486
676.892	0.0712362
678.82	0.0712795
680.749	0.0708764
682.677	0.0707708
684.606	0.0709099
686.534	0.0710937
688.462	0.0710121
690.391	0.0714476
692.319	0.0718825
694.248	0.0723486
696.176	0.0717953
698.105	0.0717485
700.033	0.0721844
