Measurement: Infrared, Infrared Data Processed
Mineral: Spinel
Rruff sample: R050259
Ideal chemistry: MgAl_2_O_4_
Locality: Mogok, Burma
Source: Marcus Origlieri
Description: Purple cut gemstone
Measured chemistry: (Mg_0.99_Zn_0.01_)_Σ=1_(Al_1.98_Fe^3+^_0.02_)_Σ=2_O_4_; trace amounts of Cr
x	intensity
372.194	0
381.836	0.0778535
391.479	0.0813227
401.121	0.0838809
410.763	0.0823064
420.406	0.0848478
430.048	0.0854193
439.69	0.0870261
449.333	0.0877614
458.975	0.0884684
468.617	0.0858198
478.26	0.083712
487.902	0.0879318
497.544	0.0910011
507.187	0.0924463
516.829	0.0932119
526.471	0.0915308
536.114	0.0883204
545.756	0.0840692
555.398	0.0794158
565.041	0.0733444
574.683	0.0696902
584.325	0.0686226
593.968	0.057052
603.61	0.0431583
613.252	0.0334769
622.895	0.0342646
632.537	0.0486771
642.179	0.0667191
651.822	0.0789221
661.464	0.082757
671.106	0.083727
680.749	0.0836793
690.391	0.0810452
700.033	0.0770092
709.676	0.0727371
719.318	0.0684557
728.96	0.0640423
738.603	0.0590371
748.245	0.0537154
757.887	0.0476616
767.53	0.0409166
777.172	0.0346467
786.814	0.0304506
796.457	0.027218
806.099	0.0244234
815.741	0.022162
825.384	0.0193004
835.026	0.0156598
844.668	0.012281
854.311	0.00948732
863.953	0.00740005
873.595	0.00584015
883.238	0.00489341
892.88	0.00395564
902.522	0.00342076
912.165	0.00290917
921.807	0.00235243
931.449	0.00209975
941.092	0.00193603
950.734	0.00192973
960.376	0.00187616
970.019	0.00170455
979.661	0.00156974
989.303	0.00171349
998.946	0.00148342
1008.59	0.00158557
1018.23	0.00147211
1027.87	0.00108954
1037.52	0.0010838
1047.16	0.00065318
1056.8	0.000439977
1066.44	5.24409e-05
1076.08	-5.97896e-05
1085.73	9.96504e-06
1095.37	-0.000425067
1105.01	-0.000558543
1114.65	-0.000738539
1124.3	-0.00040994
1133.94	-0.000679396
1143.58	-0.000889198
1153.22	-0.000725482
1162.87	-0.00100549
1172.51	-0.000960008
1182.15	-0.00110773
1191.79	-0.0011471
1201.43	-0.00120643
1211.08	-0.00120314
1220.72	-0.000933189
1230.36	-0.00122568
1240	-0.00112312
1249.65	-0.00135484
1259.29	-0.00143651
1268.93	-0.00134774
1278.57	-0.00136677
1288.22	-0.00127019
1297.86	-0.00130008
1307.5	-0.00140551
1317.14	-0.00121097
1326.79	-0.00123142
1336.43	-0.00118049
1346.07	-0.00123463
1355.71	-0.00116524
1365.35	-0.00131154
1375	-0.00129562
1384.64	-0.00111863
1394.28	-0.000841008
1403.92	-0.000559397
1413.57	-0.000500813
1423.21	-0.000370823
1432.85	-0.000274352
1442.49	-0.000319384
1452.13	-0.000529573
1461.78	-0.000818791
1471.42	-0.00063495
1481.06	-0.000223491
1490.7	-0.000403761
1500.35	-0.000408211
1509.99	-0.000432735
1519.63	-0.000577934
1529.27	-0.00052196
1538.92	-0.000753827
1548.56	-0.000776334
1558.2	-0.000915701
1567.84	-0.000815941
1577.49	-0.000565155
1587.13	-0.000617789
1596.77	-0.000260943
1606.41	-0.000392279
1616.06	-0.0005084
1625.7	-0.000548142
1635.34	-0.000593245
1644.98	-0.000450178
1654.62	-0.000901296
1664.27	-0.000670459
1673.91	-0.000871196
1683.55	-0.000797706
1693.19	-0.000787143
1702.84	-0.000968749
1712.48	-0.00114705
1722.12	-0.00140791
1731.76	-0.00204918
1741.4	-0.00226122
1751.05	-0.00214161
1760.69	-0.00116816
1770.33	-0.00103948
1779.97	-0.000692384
1789.62	-0.000961799
1799.26	-0.000554418
1808.9	-0.000911221
1818.54	-0.00075049
1828.19	-0.000597652
1837.83	-0.000384397
1847.47	-0.000491889
1857.11	0.000139447
1866.76	-0.000280517
1876.4	2.87864e-05
1886.04	-4.16187e-05
1895.68	-9.05694e-05
1905.33	0.000398959
1914.97	-0.000361082
1924.61	-0.00087071
1934.25	0.00017338
1943.89	-8.38564e-05
1953.54	-7.73471e-05
1963.18	0.000313134
1972.82	0.000929049
1982.46	0.0010346
1992.11	0.00124975
2001.75	0.000884244
2011.39	3.49896e-05
2021.03	0.000667359
2030.67	0.00162851
2040.32	0.00203505
2049.96	0.00249513
2059.6	0.00100975
2069.24	0.00128578
2078.89	0.00138173
2088.53	0.000828581
2098.17	0.00136154
2107.81	0.00173424
2117.46	0.00160392
2127.1	0.000751475
2136.74	0.000637905
2146.38	-0.0012654
2156.03	0.00106696
2165.67	0.00472985
2175.31	0.00307012
2184.95	0.00348656
2194.59	0.00250063
2204.24	0.000175958
2213.88	0.00107202
2223.52	0.00137434
2233.16	-9.18959e-05
2242.81	0.000200072
2252.45	0.000173014
2262.09	-0.000932338
2271.73	2.59691e-05
2281.38	-0.000159107
2291.02	0.000238768
2300.66	-0.000550459
2310.3	-0.000295744
2319.95	0.000541535
2329.59	-0.000101807
2339.23	0.00017123
2348.87	-0.000821451
2358.51	0.000480952
2368.16	-0.00031225
2377.8	-0.00094319
2387.44	-0.00142229
2397.08	-0.00133618
2406.73	-0.00100645
2416.37	-0.0012265
2426.01	-0.000613791
2435.65	-0.00082527
2445.3	-0.00080182
2454.94	-0.00105676
2464.58	-0.00125342
2474.22	-0.000899529
2483.86	-0.00136236
2493.51	-0.000409883
2503.15	-0.00118241
2512.79	-0.00090232
2522.43	-0.0017116
2532.08	-0.00141788
2541.72	-0.00132849
2551.36	-0.00136578
2561	-0.00128042
2570.65	-0.000856881
2580.29	-0.000549942
2589.93	-0.0010732
2599.57	-0.00126374
2609.22	-0.00115772
2618.86	-0.000948384
2628.5	-0.00112321
2638.14	-0.00149011
2647.78	-0.00131566
2657.43	-0.00169955
2667.07	-0.00277717
2676.71	-0.00237031
2686.35	-0.00261618
2696	-0.00281602
2705.64	-0.00212106
2715.28	-0.00230696
2724.92	-0.00239165
2734.57	-0.00258646
2744.21	-0.00247418
2753.85	-0.00215703
2763.49	-0.00278722
2773.14	-0.00231053
2782.78	-0.002535
2792.42	-0.00267996
2802.06	-0.00252069
2811.7	-0.00250482
2821.35	-0.00280463
2830.99	-0.00292567
2840.63	-0.00356704
2850.27	-0.00679101
2859.92	-0.00567955
2869.56	-0.00490142
2879.2	-0.00436083
2888.84	-0.00407083
2898.49	-0.00561742
2908.13	-0.00609754
2917.77	-0.00989757
2927.41	-0.010564
2937.05	-0.00759605
2946.7	-0.00614799
2956.34	-0.00603513
2965.98	-0.00518936
2975.62	-0.00383869
2985.27	-0.00354399
2994.91	-0.00408992
3004.55	-0.00364412
3014.19	-0.00467257
3023.84	-0.00408318
3033.48	-0.00368943
3043.12	-0.00279389
3052.76	-0.0039735
3062.41	-0.0032695
3072.05	-0.00302754
3081.69	-0.00353004
3091.33	-0.00388297
3100.97	-0.00349454
3110.62	-0.0033512
3120.26	-0.00355473
3129.9	-0.00270601
3139.54	-0.00312032
3149.19	-0.00326825
3158.83	-0.00311087
3168.47	-0.00371541
3178.11	-0.00291058
3187.76	-0.00363184
3197.4	-0.00294272
3207.04	-0.00388621
3216.68	-0.00402065
3226.32	-0.00365904
3235.97	-0.00381306
3245.61	-0.0044132
3255.25	-0.00304559
3264.89	-0.00385966
3274.54	-0.00408972
3284.18	-0.0036464
3293.82	-0.00414667
3303.46	-0.00491801
3313.11	-0.00452905
3322.75	-0.00473374
3332.39	-0.00426007
3342.03	-0.00465812
3351.68	-0.0046606
3361.32	-0.0045611
3370.96	-0.00471458
3380.6	-0.00507225
3390.24	-0.00466944
3399.89	-0.00544737
3409.53	-0.0049631
3419.17	-0.00529393
3428.81	-0.00553231
3438.46	-0.00572482
3448.1	-0.0056011
3457.74	-0.00579687
3467.38	-0.00500105
3477.03	-0.00528225
3486.67	-0.00615352
3496.31	-0.00620112
3505.95	-0.00572332
3515.59	-0.0051255
3525.24	-0.00556546
3534.88	-0.0056493
3544.52	-0.00585718
3554.16	-0.00623382
3563.81	-0.00476782
3573.45	-0.00634654
3583.09	-0.00534968
3592.73	-0.00649484
3602.38	-0.00621662
3612.02	-0.00655413
3621.66	-0.00582589
3631.3	-0.00620865
3640.95	-0.0069139
3650.59	-0.00686994
3660.23	-0.0068224
3669.87	-0.00529965
3679.51	-0.00644882
3689.16	-0.00657176
3698.8	-0.00555712
3708.44	-0.00580437
3718.08	-0.00643851
3727.73	-0.00613913
3737.37	-0.00746437
3747.01	-0.0070488
3756.65	-0.0058043
3766.3	-0.00643312
3775.94	-0.00701726
3785.58	-0.00660036
3795.22	-0.00577643
3804.86	-0.0072932
3814.51	-0.0066153
3824.15	-0.00712364
3833.79	-0.00812196
3843.43	-0.00671798
3853.08	-0.00620019
3862.72	-0.00758095
3872.36	-0.00750906
3882	-0.00778781
3891.65	-0.00714755
3901.29	-0.00808845
3910.93	-0.00725459
3920.57	-0.00788238
3930.22	-0.00795919
3939.86	-0.00761759
3949.5	-0.00711073
3959.14	-0.00863514
3968.78	-0.00762992
3978.43	-0.00737966
3988.07	-0.00780184
3997.71	-0.00763239
