Measurement: Infrared, Infrared Data Processed
Mineral: Spinel
Rruff sample: R050392
Ideal chemistry: MgAl_2_O_4_
Locality: Mogok, Burma
Source: Eric Van Valkenburg
Description: Pink octahedron
Measured chemistry: Mg_1.00_Al_1.96_Cr_0.04_O_4_
x	intensity
399.193	0.439017
408.835	0.485806
418.477	0.473975
428.12	0.469775
437.762	0.456068
447.404	0.46265
457.047	0.438815
466.689	0.419379
476.331	0.380303
485.974	0.363313
495.616	0.339227
505.258	0.31406
514.901	0.288427
524.543	0.264916
534.185	0.241757
543.828	0.217343
553.47	0.201814
563.112	0.188277
572.755	0.199774
582.397	0.182521
592.039	0.151125
601.682	0.132677
611.324	0.126862
620.966	0.148762
630.609	0.216413
640.251	0.329709
649.893	0.411968
659.536	0.414215
669.178	0.369827
678.82	0.317949
688.463	0.268385
698.105	0.228515
707.747	0.199517
717.39	0.178238
727.032	0.158554
736.674	0.143408
746.317	0.129741
755.959	0.117962
765.601	0.108327
775.244	0.0988095
784.886	0.0919164
794.528	0.0855181
804.171	0.0793378
813.813	0.0731117
823.455	0.0652422
833.098	0.0559856
842.74	0.0473892
852.382	0.0400565
862.025	0.032784
871.667	0.0274818
881.309	0.020757
890.952	0.0216062
900.594	0.020165
910.236	0.018319
919.879	0.0171476
929.521	0.0159542
939.163	0.0147289
948.806	0.0141557
958.448	0.0134654
968.09	0.0132771
977.733	0.0129684
987.375	0.0128497
997.017	0.0133642
1006.66	0.0131737
1016.3	0.012666
1025.94	0.0121261
1035.59	0.00945868
1045.23	0.0029085
1054.87	0.0062628
1064.51	0.0106868
1074.16	0.0102164
1083.8	0.00702569
1093.44	0.00623145
1103.08	0.00993842
1112.72	0.0104396
1122.37	0.0105078
1132.01	0.0099466
1141.65	0.00961372
1151.3	0.00910214
1160.94	0.0089798
1170.58	0.0083285
1180.22	0.00798449
1189.86	0.00772835
1199.51	0.00734703
1209.15	0.00756344
1218.79	0.00749984
1228.43	0.00738209
1238.08	0.00731456
1247.72	0.00758585
1257.36	0.0068963
1267	0.00637014
1276.64	0.00628743
1286.29	0.00609207
1295.93	0.00607705
1305.57	0.00618572
1315.21	0.00616467
1324.86	0.00615799
1334.5	0.0066411
1344.14	0.0071426
1353.78	0.00805578
1363.43	0.00857389
1373.07	0.00842768
1382.71	0.00845759
1392.35	0.00969778
1401.99	0.0107594
1411.64	0.0108338
1421.28	0.0103836
1430.92	0.0108848
1440.57	0.0105769
1450.21	0.01053
1459.85	0.0102824
1469.49	0.0103128
1479.13	0.00977945
1488.78	0.00979422
1498.42	0.0103467
1508.06	0.0111169
1517.7	0.0114252
1527.35	0.011914
1536.99	0.0124037
1546.63	0.013049
1556.27	0.0135466
1565.91	0.0139151
1575.56	0.0142456
1585.2	0.0145036
1594.84	0.0152149
1604.48	0.015323
1614.13	0.015277
1623.77	0.0152454
1633.41	0.0154114
1643.05	0.0152395
1652.7	0.0145143
1662.34	0.0139489
1671.98	0.0139155
1681.62	0.013032
1691.27	0.0112944
1700.91	0.0109486
1710.55	0.0110479
1720.19	0.011299
1729.84	0.0113607
1739.48	0.0117083
1749.12	0.0104269
1758.76	0.0104962
1768.4	0.010087
1778.05	0.0104907
1787.69	0.0113358
1797.33	0.011567
1806.97	0.0112803
1816.62	0.0109774
1826.26	0.0115969
1835.9	0.0112469
1845.54	0.0107174
1855.18	0.0111222
1864.83	0.0123712
1874.47	0.0117299
1884.11	0.0119777
1893.75	0.0125875
1903.4	0.0121618
1913.04	0.0131708
1922.68	0.0111978
1932.32	0.0115667
1941.97	0.0107941
1951.61	0.0129019
1961.25	0.0147391
1970.89	0.0119095
1980.54	0.0146002
1990.18	0.0144879
1999.82	0.0152928
2009.46	0.0167694
2019.11	0.0158237
2028.75	0.0154565
2038.39	0.017107
2048.03	0.0170231
2057.67	0.0158906
2067.32	0.0161002
2076.96	0.018255
2086.6	0.0175173
2096.24	0.0166303
2105.89	0.016075
2115.53	0.0167766
2125.17	0.0152203
2134.81	0.0158298
2144.45	0.0133943
2154.1	0.014285
2163.74	0.0228965
2173.38	0.0179709
2183.02	0.0177499
2192.67	0.0147607
2202.31	0.0164555
2211.95	0.0188438
2221.59	0.017501
2231.24	0.0211884
2240.88	0.0202376
2250.52	0.0187969
2260.16	0.0197032
2269.8	0.0218877
2279.45	0.021877
2289.09	0.0217531
2298.73	0.0205413
2308.38	0.0217259
2318.02	0.0216893
2327.66	0.0220598
2337.3	0.0219489
2346.94	0.0210449
2356.59	0.0209307
2366.23	0.0210473
2375.87	0.019408
2385.51	0.0189939
2395.16	0.0195497
2404.8	0.0197167
2414.44	0.0212716
2424.08	0.017933
2433.72	0.021353
2443.37	0.0212388
2453.01	0.0222556
2462.65	0.0230029
2472.29	0.0223248
2481.94	0.02235
2491.58	0.0227768
2501.22	0.0222952
2510.86	0.0223415
2520.51	0.0225153
2530.15	0.0228931
2539.79	0.0214413
2549.43	0.0212776
2559.07	0.0222012
2568.72	0.0234985
2578.36	0.0222073
2588	0.0241029
2597.64	0.0235438
2607.29	0.0251136
2616.93	0.0245465
2626.57	0.0244707
2636.21	0.0247618
2645.86	0.024504
2655.5	0.0253676
2665.14	0.0243109
2674.78	0.0242416
2684.43	0.0240161
2694.07	0.0238608
2703.71	0.0239808
2713.35	0.0243774
2722.99	0.0242403
2732.64	0.0255778
2742.28	0.0254185
2751.92	0.0251001
2761.56	0.0265633
2771.21	0.0261389
2780.85	0.025932
2790.49	0.0251631
2800.13	0.0251673
2809.78	0.025281
2819.42	0.0262576
2829.06	0.0253825
2838.7	0.025897
2848.34	0.0297864
2857.99	0.0270151
2867.63	0.0267979
2877.27	0.0247144
2886.91	0.027372
2896.56	0.0276715
2906.2	0.0301864
2915.84	0.033613
2925.48	0.0312267
2935.13	0.0300794
2944.77	0.0298424
2954.41	0.0300673
2964.05	0.0274507
2973.7	0.021443
2983.34	0.0299187
2992.98	0.0310617
3002.62	0.0324872
3012.26	0.0315909
3021.91	0.0299122
3031.55	0.0295586
3041.19	0.0307691
3050.83	0.0303958
3060.48	0.0319397
3070.12	0.0310247
3079.76	0.0322352
3089.4	0.0321414
3099.05	0.0306204
3108.69	0.0314412
3118.33	0.029642
3127.97	0.0305726
3137.61	0.03062
3147.26	0.0309789
3156.9	0.0323305
3166.54	0.0293819
3176.18	0.0326216
3185.83	0.0313245
3195.47	0.0301499
3205.11	0.0303809
3214.75	0.0298828
3224.4	0.0284885
3234.04	0.0294891
3243.68	0.0287102
3253.32	0.0299471
3262.97	0.0304096
3272.61	0.0289738
3282.25	0.029242
3291.89	0.0295821
3301.53	0.0294905
3311.18	0.0283557
3320.82	0.0278997
3330.46	0.0283428
3340.1	0.0275683
3349.75	0.0323154
3359.39	0.0296238
3369.03	0.0310578
3378.67	0.029165
3388.32	0.032019
3397.96	0.0288664
3407.6	0.0305482
3417.24	0.0313801
3426.89	0.0358382
3436.53	0.0347712
3446.17	0.0330943
3455.81	0.0390619
3465.45	0.0356733
3475.1	0.0353237
3484.74	0.03899
3494.38	0.038425
3504.02	0.0384216
3513.67	0.0370337
3523.31	0.038171
3532.95	0.042385
3542.59	0.0370632
3552.24	0.0402516
3561.88	0.0375816
3571.52	0.0374143
3581.16	0.0390079
3590.8	0.0415737
3600.45	0.0371289
3610.09	0.033304
3619.73	0.0376184
3629.37	0.0368249
3639.02	0.0339188
3648.66	0.0387077
3658.3	0.0378823
3667.94	0.0374483
3677.59	0.0392501
3687.23	0.0357663
3696.87	0.0400419
3706.51	0.0412542
3716.16	0.0369254
3725.8	0.0364946
3735.44	0.0404593
3745.08	0.03383
3754.72	0.0326837
3764.37	0.0407147
3774.01	0.0357313
3783.65	0.037194
3793.29	0.0380012
3802.94	0.0368615
3812.58	0.0405487
3822.22	0.0395386
3831.86	0.0379886
3841.51	0.0398802
3851.15	0.0389015
3860.79	0.0374052
3870.43	0.0339559
3880.07	0.0369001
3889.72	0.0425921
3899.36	0.0422132
3909	0.0406134
3918.64	0.0367718
3928.29	0.039463
3937.93	0.0398576
3947.57	0.0359618
3957.21	0.0416698
3966.86	0.0386911
3976.5	0.0400245
3986.14	0.0455947
3995.78	0.0428199
