Measurement: Infrared, Infrared Data Processed
Mineral: Spinel
Rruff sample: R070013
Ideal chemistry: MgAl_2_O_4_
Locality: Bo Phloi, Kanchoutabori Province, Thailand
Source: Michael Scott
Description: Black glassy fragment with conchoidal fracture
Measured chemistry: (Mg_0.69_Fe^2+^_0.31_)_Σ=1_(Al_1.90_Fe^3+^_0.10_)_Σ=2_O_4_ ; trace of Mn, Ti and Cr
x	intensity
399.193	0.0456646
408.835	0.047528
418.477	0.0513902
428.12	0.0535233
437.762	0.0530761
447.404	0.0571969
457.047	0.0601002
466.689	0.0616306
476.331	0.0629765
485.974	0.0645523
495.616	0.067168
505.258	0.0678692
514.901	0.0684474
524.543	0.067052
534.185	0.0638283
543.828	0.0598866
553.47	0.0571933
563.112	0.0544606
572.755	0.0504718
582.397	0.0475775
592.039	0.04648
601.682	0.046439
611.324	0.0468477
620.966	0.0489278
630.609	0.0523108
640.251	0.0568091
649.893	0.0608511
659.536	0.0630489
669.178	0.0644677
678.82	0.0633845
688.463	0.0602707
698.105	0.055776
707.747	0.0518572
717.39	0.0476702
727.032	0.0438272
736.674	0.0403556
746.317	0.0368595
755.959	0.0333154
765.601	0.0301573
775.244	0.027662
784.886	0.0250282
794.528	0.0229899
804.171	0.0206769
813.813	0.01822
823.455	0.0150087
833.098	0.0118936
842.74	0.00885392
852.382	0.00682321
862.025	0.00529067
871.667	0.00434954
881.309	0.00338689
890.952	0.00303668
900.594	0.00247369
910.236	0.00233694
919.879	0.00171993
929.521	0.00158984
939.163	0.00129222
948.806	0.00105196
958.448	0.00097083
968.09	0.000905224
977.733	0.00084374
987.375	0.000890553
997.017	0.000919113
1006.66	0.000710506
1016.3	0.000754473
1025.94	0.000487431
1035.59	0.00055853
1045.23	0.000279576
1054.87	0.000223469
1064.51	0.000121797
1074.16	7.63561e-05
1083.8	-7.44539e-05
1093.44	-3.924e-05
1103.08	-0.000468823
1112.72	-0.000591697
1122.37	-0.000291967
1132.01	-0.000569334
1141.65	-0.000673977
1151.3	-0.00081853
1160.94	-0.000646375
1170.58	-0.00074818
1180.22	-0.00076621
1189.86	-0.000905392
1199.51	-0.000889761
1209.15	-0.0010047
1218.79	-0.000912836
1228.43	-0.00104022
1238.08	-0.0011135
1247.72	-0.00110813
1257.36	-0.00118299
1267	-0.00110026
1276.64	-0.000992061
1286.29	-0.000749292
1295.93	-0.000888088
1305.57	-0.000753667
1315.21	-0.00085294
1324.86	-0.000873278
1334.5	-0.000931262
1344.14	-0.00082359
1353.78	-0.000965907
1363.43	-0.000674886
1373.07	-0.000861078
1382.71	-0.000783846
1392.35	-0.000755071
1401.99	-0.000737008
1411.64	-0.000834057
1421.28	-0.0005147
1430.92	-0.000539799
1440.57	-0.000585081
1450.21	-0.000729559
1459.85	-0.000815399
1469.49	-0.000878671
1479.13	-0.000463165
1488.78	-0.000327926
1498.42	-0.000200249
1508.06	0.000156445
1517.7	-0.000212649
1527.35	-0.000158688
1536.99	-0.000328035
1546.63	-0.000328497
1556.27	-0.000301521
1565.91	-0.00064466
1575.56	-7.5407e-05
1585.2	-0.000734041
1594.84	-0.000603044
1604.48	-0.000506458
1614.13	-0.00027352
1623.77	-0.000314103
1633.41	-0.000285363
1643.05	-0.000349913
1652.7	0.000491191
1662.34	-0.000323015
1671.98	-0.000309962
1681.62	-0.000229844
1691.27	-0.000235509
1700.91	0.000335699
1710.55	-0.000164939
1720.19	-0.000186709
1729.84	-0.000502434
1739.48	-0.000663764
1749.12	-0.000794288
1758.76	-0.000438983
1768.4	-0.000232991
1778.05	-0.000124286
1787.69	-0.000194954
1797.33	-1.78462e-05
1806.97	-2.97939e-05
1816.62	-0.000393114
1826.26	0.000246156
1835.9	0.000268207
1845.54	0.000532383
1855.18	0.000501019
1864.83	0.00100544
1874.47	0.000415473
1884.11	0.000884466
1893.75	0.000713733
1903.4	0.00047067
1913.04	0.000746053
1922.68	0.000736711
1932.32	5.33424e-05
1941.97	0.00122296
1951.61	0.00101723
1961.25	0.000820213
1970.89	0.000159671
1980.54	0.00126054
1990.18	0.00162983
1999.82	0.000927574
2009.46	0.000550087
2019.11	0.000821856
2028.75	-0.000738796
2038.39	0.000548697
2048.03	0.000768985
2057.67	-0.000272434
2067.32	0.000525331
2076.96	0.00131116
2086.6	0.000944662
2096.24	0.00100276
2105.89	0.000970864
2115.53	0.00138148
2125.17	0.000944359
2134.81	8.81951e-05
2144.45	0.00022606
2154.1	-0.000337691
2163.74	0.00187556
2173.38	0.000936696
2183.02	0.00202858
2192.67	0.000732324
2202.31	0.000791037
2211.95	0.0005747
2221.59	0.000473994
2231.24	0.000558889
2240.88	0.00100245
2250.52	0.000561375
2260.16	7.9733e-05
2269.8	0.0010291
2279.45	0.00100323
2289.09	0.00120792
2298.73	0.000968683
2308.38	0.00129936
2318.02	0.00155278
2327.66	0.00181408
2337.3	0.00176134
2346.94	0.0013361
2356.59	0.00215494
2366.23	0.00223871
2375.87	0.00118007
2385.51	0.00102201
2395.16	0.000818202
2404.8	0.000959695
2414.44	0.000944
2424.08	0.000979826
2433.72	0.00143164
2443.37	0.00122909
2453.01	0.00147389
2462.65	0.00110178
2472.29	0.00138374
2481.94	0.00177682
2491.58	0.00161705
2501.22	0.00158225
2510.86	0.00176577
2520.51	0.00198758
2530.15	0.00142819
2539.79	0.00157143
2549.43	0.00121017
2559.07	0.001762
2568.72	0.00124978
2578.36	0.00129119
2588	0.0017106
2597.64	0.00163123
2607.29	0.00140278
2616.93	0.0015825
2626.57	0.00111234
2636.21	0.0014441
2645.86	0.00116073
2655.5	0.00103929
2665.14	0.0010383
2674.78	0.0011251
2684.43	0.000840206
2694.07	0.00101208
2703.71	0.00101356
2713.35	0.00141606
2722.99	0.00115086
2732.64	0.00132398
2742.28	0.00134185
2751.92	0.00109118
2761.56	0.00142376
2771.21	0.00089657
2780.85	0.00149479
2790.49	0.0014211
2800.13	0.00214259
2809.78	0.00146439
2819.42	0.00157165
2829.06	0.00118476
2838.7	0.000992606
2848.34	-0.00114477
2857.99	-0.000969249
2867.63	0.000141278
2877.27	0.000931766
2886.91	0.000609264
2896.56	5.98617e-05
2906.2	-0.000396027
2915.84	-0.00324242
2925.48	-0.00388976
2935.13	-0.00157691
2944.77	-0.000496797
2954.41	0.000268784
2964.05	0.000333316
2973.7	0.00127497
2983.34	0.00160576
2992.98	0.0011109
3002.62	0.00129232
3012.26	0.00176102
3021.91	0.00193811
3031.55	0.00212366
3041.19	0.00204391
3050.83	0.00176672
3060.48	0.00244324
3070.12	0.00220014
3079.76	0.00231958
3089.4	0.00241635
3099.05	0.0023817
3108.69	0.00280624
3118.33	0.00268851
3127.97	0.00225676
3137.61	0.00238784
3147.26	0.00290766
3156.9	0.00263481
3166.54	0.00305351
3176.18	0.00319337
3185.83	0.00243744
3195.47	0.00279263
3205.11	0.0030342
3214.75	0.00286974
3224.4	0.00304
3234.04	0.00329759
3243.68	0.00255574
3253.32	0.00294491
3262.97	0.00324952
3272.61	0.00243279
3282.25	0.00301406
3291.89	0.00249198
3301.53	0.00336184
3311.18	0.00282562
3320.82	0.00328932
3330.46	0.00281249
3340.1	0.00334775
3349.75	0.00290256
3359.39	0.00230505
3369.03	0.00268132
3378.67	0.00273169
3388.32	0.0029552
3397.96	0.00319284
3407.6	0.00330404
3417.24	0.00373636
3426.89	0.00343602
3436.53	0.00308219
3446.17	0.00283212
3455.81	0.00303619
3465.45	0.00327718
3475.1	0.00266048
3484.74	0.00337611
3494.38	0.00314395
3504.02	0.00375583
3513.67	0.00328559
3523.31	0.00323093
3532.95	0.00325181
3542.59	0.00407298
3552.24	0.00433128
3561.88	0.00318157
3571.52	0.00402602
3581.16	0.00416569
3590.8	0.0030753
3600.45	0.00464133
3610.09	0.00437612
3619.73	0.00444646
3629.37	0.00514919
3639.02	0.00430562
3648.66	0.00559606
3658.3	0.00442303
3667.94	0.0039527
3677.59	0.00449854
3687.23	0.00444793
3696.87	0.00415393
3706.51	0.00469291
3716.16	0.00439649
3725.8	0.00408974
3735.44	0.004624
3745.08	0.00598245
3754.72	0.00420044
3764.37	0.00425533
3774.01	0.00415486
3783.65	0.00381492
3793.29	0.00427464
3802.94	0.00490549
3812.58	0.00449461
3822.22	0.00520501
3831.86	0.00421385
3841.51	0.00387286
3851.15	0.00519618
3860.79	0.004322
3870.43	0.00500078
3880.07	0.00434109
3889.72	0.00493555
3899.36	0.0044687
3909	0.00310925
3918.64	0.00521783
3928.29	0.00488148
3937.93	0.00443242
3947.57	0.00422732
3957.21	0.00525243
3966.86	0.00388253
3976.5	0.00448196
3986.14	0.00425052
3995.78	0.00510632
