Measurement: Infrared, Infrared Data Processed
Mineral: Spodumene
Rruff sample: R050252
Ideal chemistry: LiAlSi_2_O_6_
Locality: Minas Gerais, Brazil
Source: Marcus Origlieri
Description: Pale lavendar cleavage fragment
Measured chemistry: Li_1.00_Al_1.00_Si_2.00_O_6_
x	intensity
50.1401	-0.00249781
52.0686	-0.00267015
53.9971	0.00107866
55.9255	0.00380148
57.854	0.00677973
59.7825	0.0041216
61.7109	0.0014494
63.6394	0.00124192
65.5679	0.00219432
67.4963	0.00322102
69.4248	0.00289778
71.3533	0.00350412
73.2817	0.00319032
75.2102	0.00294331
77.1387	0.00303367
79.0671	0.0036107
80.9956	0.00520621
82.9241	0.00575576
84.8525	0.00568975
86.781	0.00625398
88.7095	0.00643651
90.6379	0.00561795
92.5664	0.00498148
94.4948	0.00571006
96.4233	0.00601626
98.3518	0.00617039
100.28	0.00641065
102.209	0.00647574
104.137	0.00651134
106.066	0.00674211
107.994	0.00645944
109.923	0.00627009
111.851	0.00654104
113.779	0.00687169
115.708	0.00694951
117.636	0.00696015
119.565	0.00728855
121.493	0.00778841
123.422	0.00765772
125.35	0.00790446
127.279	0.00835006
129.207	0.00845379
131.136	0.00841294
133.064	0.00828627
134.993	0.00835535
136.921	0.00865827
138.85	0.00908671
140.778	0.00903604
142.707	0.00919248
144.635	0.00953927
146.563	0.00925123
148.492	0.0092675
150.42	0.00972069
152.349	0.00998661
154.277	0.0106418
156.206	0.0109277
158.134	0.0110351
160.063	0.0111585
161.991	0.0108991
163.92	0.0111162
165.848	0.0116641
167.777	0.0122749
169.705	0.0125259
171.633	0.01235
173.562	0.0124379
175.49	0.0128851
177.419	0.0132059
179.347	0.0133377
181.276	0.0136234
183.204	0.0138952
185.133	0.0137225
187.061	0.0137149
188.99	0.0140396
190.918	0.0146991
192.847	0.015543
194.775	0.015921
196.704	0.0159314
198.632	0.0162158
200.56	0.0166844
202.489	0.0171694
204.417	0.0172541
206.346	0.0175087
208.274	0.018156
210.203	0.0185291
212.131	0.0189644
214.06	0.0195251
215.988	0.0196777
217.917	0.0201284
219.845	0.0206418
221.774	0.0212991
223.702	0.0221876
225.631	0.0228857
227.559	0.0235794
229.488	0.0242213
231.416	0.0248236
233.344	0.0249605
235.273	0.024563
237.201	0.0240602
239.13	0.0231943
241.058	0.022714
242.987	0.0227531
244.915	0.022957
246.844	0.022987
248.772	0.022912
250.701	0.0223201
252.629	0.021844
254.558	0.0213311
256.486	0.0205677
258.414	0.0198437
260.343	0.0198909
262.271	0.0203229
264.2	0.0209597
266.128	0.0221078
268.057	0.0232892
269.985	0.0242594
271.914	0.0252247
273.842	0.0259378
275.771	0.0263235
277.699	0.0262665
279.628	0.025852
281.556	0.0253002
283.485	0.024569
285.413	0.0241178
287.341	0.0236882
289.27	0.0235436
291.198	0.0234766
293.127	0.023312
295.055	0.0234193
296.984	0.0238234
298.912	0.0244
300.841	0.025233
302.769	0.0263246
304.698	0.0264986
306.626	0.0260937
308.555	0.0253809
310.483	0.0247468
312.411	0.0246238
314.34	0.0247512
316.269	0.0247072
318.197	0.0249373
320.125	0.0249874
322.054	0.0246818
323.982	0.0241843
325.911	0.0237607
327.839	0.0236981
329.768	0.0233219
331.696	0.0232251
333.625	0.0237514
335.553	0.0242229
337.482	0.024494
339.41	0.024672
341.339	0.0246434
343.267	0.024601
345.195	0.0246279
347.124	0.0245436
349.052	0.0250242
350.981	0.0255979
352.909	0.0257778
354.838	0.0259909
356.766	0.0266666
358.695	0.0272001
360.623	0.027791
362.552	0.0284222
364.48	0.0291473
366.409	0.0300856
368.337	0.0308265
370.265	0.0312112
372.194	0.0321265
374.122	0.0332723
376.051	0.0335622
377.979	0.0333696
379.908	0.032957
381.836	0.0316799
383.765	0.0300378
385.693	0.0286672
387.622	0.0278316
389.55	0.0278673
391.479	0.0286083
393.407	0.0298447
395.336	0.0313616
397.264	0.0328938
399.192	0.03416
401.121	0.034333
403.049	0.0334245
404.978	0.0319057
406.906	0.0302234
408.835	0.0293111
410.763	0.0292086
412.692	0.02934
414.62	0.0298548
416.549	0.0305453
418.477	0.0310532
420.406	0.031369
422.334	0.0318189
424.262	0.0327637
426.191	0.0334389
428.12	0.0339498
430.048	0.0347987
431.976	0.0355093
433.905	0.0360762
435.833	0.036612
437.762	0.0371593
439.69	0.0377761
441.619	0.0387178
443.547	0.0394243
445.476	0.0400545
447.404	0.0406701
449.333	0.0412814
451.261	0.041974
453.19	0.0427062
455.118	0.0432967
457.046	0.0435082
458.975	0.0439809
460.903	0.0447878
462.832	0.0459414
464.76	0.046694
466.689	0.0471077
468.617	0.0478121
470.546	0.0481672
472.474	0.0483547
474.403	0.0485782
476.331	0.0487447
478.26	0.04877
480.188	0.048372
482.116	0.0479264
484.045	0.0473953
485.974	0.0469666
487.902	0.0467525
489.83	0.0461695
491.759	0.045713
493.687	0.0454787
495.616	0.0452736
497.544	0.0452943
499.473	0.0451437
501.401	0.0453284
503.33	0.0452963
505.258	0.044893
507.187	0.0444343
509.115	0.0436879
511.043	0.0428334
512.972	0.0419995
514.9	0.0413134
516.829	0.0411823
518.757	0.0411731
520.686	0.0412504
522.614	0.0410212
524.543	0.0409151
526.471	0.0411785
528.4	0.0411741
530.328	0.0410448
532.257	0.0407311
534.185	0.0405474
536.114	0.0405517
538.042	0.0403875
539.971	0.0403425
541.899	0.0400657
543.827	0.0398012
545.756	0.0391689
547.684	0.0387328
549.613	0.0383396
551.541	0.037428
553.47	0.0363982
555.398	0.03579
557.327	0.035661
559.255	0.0355814
561.184	0.0352661
563.112	0.0351887
565.041	0.0356151
566.969	0.0361972
568.898	0.0366707
570.826	0.0371949
572.755	0.0375072
574.683	0.0379968
576.611	0.0388048
578.54	0.039249
580.468	0.0396216
582.397	0.0401589
584.325	0.040577
586.254	0.0408957
588.182	0.0410898
590.111	0.0413408
592.039	0.0413325
593.968	0.041271
595.896	0.0410839
597.824	0.0407665
599.753	0.040164
601.682	0.0398388
603.61	0.0396058
605.538	0.0386224
607.467	0.0376911
609.395	0.0374793
611.324	0.0371569
613.252	0.0372422
615.181	0.0376895
617.109	0.036829
619.038	0.0359104
620.966	0.0356552
622.894	0.0360525
624.823	0.0371815
626.751	0.0384955
628.68	0.0398839
630.608	0.0412259
632.537	0.0424758
634.465	0.0429442
636.394	0.0429758
638.322	0.0433966
640.251	0.0437973
642.179	0.0440476
644.108	0.04423
646.036	0.0442452
647.965	0.0443409
649.893	0.0442269
651.822	0.043731
653.75	0.0427584
655.678	0.0417877
657.607	0.041153
659.535	0.040892
661.464	0.0405298
663.392	0.0399233
665.321	0.0396872
667.249	0.039588
669.178	0.0394794
671.106	0.0394077
673.035	0.0390342
674.963	0.0386778
676.892	0.0388651
678.82	0.039293
680.749	0.0392934
682.677	0.0389919
684.606	0.0384224
686.534	0.0380385
688.462	0.0382366
690.391	0.0390794
692.319	0.0394668
694.248	0.0390146
696.176	0.0393357
698.105	0.0396973
700.033	0.040406
