Measurement: Infrared, Infrared Data Processed
Mineral: Stannite
Rruff sample: R050187
Ideal chemistry: Cu^1+^_2_Fe^2+^Sn^4+^S^2-^_4_
Locality: Yaogangxian mine, Yizhang County, Hunan Province, China
Source: Marcus Origlieri and George Guanghua Liu
Description: Bluish-black octahedron associated with fluorite and quartz. According to Kissin & Owens (1989), since 2a is significantly larger than c, this sample is stannite.
Measured chemistry: Cu_2.00_(Fe_0.66_Zn_0.34_)Sn_1.00_S_4.00_
x	intensity
50.1401	0.0119523
52.0686	0.016568
53.9971	0.015654
55.9255	0.0126711
57.854	0.0114109
59.7825	0.0148762
61.7109	0.0189036
63.6394	0.0215907
65.5679	0.0219871
67.4963	0.018695
69.4248	0.0190606
71.3533	0.0212391
73.2817	0.022016
75.2102	0.0210188
77.1387	0.0208981
79.0671	0.0214681
80.9956	0.0233613
82.9241	0.0242473
84.8525	0.0248249
86.781	0.0246983
88.7095	0.0255509
90.6379	0.0273318
92.5664	0.0282179
94.4948	0.0282206
96.4233	0.0296532
98.3518	0.0306303
100.28	0.0302304
102.209	0.0303804
104.137	0.0314128
106.066	0.0322676
107.994	0.0335229
109.923	0.0343856
111.851	0.0348166
113.779	0.0350185
115.708	0.0353958
117.636	0.0358401
119.565	0.0374018
121.493	0.0383576
123.422	0.0391073
125.35	0.0397066
127.279	0.0402724
129.207	0.0409718
131.136	0.0425997
133.064	0.0443114
134.993	0.0453643
136.921	0.045785
138.85	0.0461264
140.778	0.0459979
142.707	0.045831
144.635	0.0453708
146.563	0.0453576
148.492	0.0458518
150.42	0.0464452
152.349	0.0466993
154.277	0.0465347
156.206	0.0471699
158.134	0.0481881
160.063	0.048689
161.991	0.0495193
163.92	0.0489898
165.848	0.0489116
167.777	0.0494982
169.705	0.0503788
171.633	0.0505697
173.562	0.0509043
175.49	0.0518007
177.419	0.0520833
179.347	0.0517902
181.276	0.0526471
183.204	0.0532408
185.133	0.05381
187.061	0.0546996
188.99	0.0552688
190.918	0.0558045
192.847	0.0566037
194.775	0.0570259
196.704	0.0573007
198.632	0.0579128
200.56	0.0584186
202.489	0.0584205
204.417	0.058457
206.346	0.0590515
208.274	0.0596576
210.203	0.0594593
212.131	0.0592832
214.06	0.0594269
215.988	0.0600172
217.917	0.0606501
219.845	0.0611297
221.774	0.0616995
223.702	0.0624969
225.631	0.0632854
227.559	0.0640165
229.488	0.0634838
231.416	0.0639373
233.344	0.0648927
235.273	0.065578
237.201	0.0664542
239.13	0.0676603
241.058	0.0682382
242.987	0.0686716
244.915	0.0694061
246.844	0.070031
248.772	0.0703522
250.701	0.0701721
252.629	0.0701259
254.558	0.0687372
256.486	0.0658773
258.414	0.0631262
260.343	0.0604624
262.271	0.0588527
264.2	0.058654
266.128	0.0596655
268.057	0.0612979
269.985	0.0632148
271.914	0.065053
273.842	0.0668613
275.771	0.0686587
277.699	0.0700329
279.628	0.0707275
281.556	0.0716998
283.485	0.0725148
285.413	0.073118
287.341	0.0737439
289.27	0.0743646
291.198	0.0742558
293.127	0.0740513
295.055	0.0742826
296.984	0.0749405
298.912	0.0762397
300.841	0.0773674
302.769	0.0766833
304.698	0.0737266
306.626	0.0713315
308.555	0.071182
310.483	0.0717749
312.411	0.0723744
314.34	0.0729694
316.269	0.0734498
318.197	0.0732498
320.125	0.0724483
322.054	0.0711385
323.982	0.0699947
325.911	0.0692885
327.839	0.0697057
329.768	0.0710092
331.696	0.0731538
333.625	0.0758332
335.553	0.0787822
337.482	0.0813326
339.41	0.0835377
341.339	0.0851361
343.267	0.0864726
345.195	0.0866606
347.124	0.0849547
349.052	0.0813612
350.981	0.0759556
352.909	0.0694997
354.838	0.0627836
356.766	0.0568482
358.695	0.0518619
360.623	0.0477744
362.552	0.0452126
364.48	0.0429375
366.409	0.0411432
368.337	0.0406183
370.265	0.0409545
372.194	0.0417695
374.122	0.0433733
376.051	0.0448577
377.979	0.0461621
379.908	0.0474536
381.836	0.0486279
383.765	0.0499786
385.693	0.0515238
387.622	0.0527493
389.55	0.0542507
391.479	0.0554781
393.407	0.0567073
395.336	0.0579234
397.264	0.0590653
399.192	0.0602679
401.121	0.0613753
403.049	0.0621772
404.978	0.0628389
406.906	0.0635944
408.835	0.0645149
410.763	0.0653365
412.692	0.0660971
414.62	0.0668779
416.549	0.0679228
418.477	0.068951
420.406	0.0696257
422.334	0.0702466
424.262	0.0709602
426.191	0.0720466
428.12	0.0732381
430.048	0.0739391
431.976	0.0745568
433.905	0.075621
435.833	0.076572
437.762	0.0771103
439.69	0.0777303
441.619	0.0783492
443.547	0.0788839
445.476	0.0793868
447.404	0.0801757
449.333	0.0807522
451.261	0.0811928
453.19	0.0818357
455.118	0.0823209
457.046	0.0831402
458.975	0.0838742
460.903	0.084405
462.832	0.0854535
464.76	0.0863585
466.689	0.0868917
468.617	0.087941
470.546	0.0888622
472.474	0.0895872
474.403	0.0903735
476.331	0.0906735
478.26	0.0906297
480.188	0.0906812
482.116	0.0906136
484.045	0.0907
485.974	0.0911595
487.902	0.0917843
489.83	0.0923114
491.759	0.0926765
493.687	0.0931879
495.616	0.0933598
497.544	0.0935433
499.473	0.0936704
501.401	0.0939952
503.33	0.0941165
505.258	0.0943052
507.187	0.0949242
509.115	0.0956357
511.043	0.0960807
512.972	0.0964993
514.9	0.0965491
516.829	0.0968312
518.757	0.0974722
520.686	0.0978432
522.614	0.0978683
524.543	0.0978129
526.471	0.0975568
528.4	0.0975303
530.328	0.0974753
532.257	0.0975101
534.185	0.0973876
536.114	0.0971783
538.042	0.0970348
539.971	0.0968931
541.899	0.0966839
543.827	0.0968717
545.756	0.0970776
547.684	0.0971759
549.613	0.0972356
551.541	0.0971995
553.47	0.096763
555.398	0.0972878
557.327	0.0977037
559.255	0.0980697
561.184	0.0987599
563.112	0.0988374
565.041	0.0989723
566.969	0.099292
568.898	0.0994346
570.826	0.100024
572.755	0.100953
574.683	0.101806
576.611	0.102772
578.54	0.103154
580.468	0.103188
582.397	0.103629
584.325	0.103628
586.254	0.104339
588.182	0.104984
590.111	0.105395
592.039	0.105831
593.968	0.105982
595.896	0.105924
597.824	0.10568
599.753	0.104822
601.682	0.103956
603.61	0.103292
605.538	0.103003
607.467	0.102498
609.395	0.101939
611.324	0.102214
613.252	0.103044
615.181	0.103001
617.109	0.103057
619.038	0.103854
620.966	0.10485
622.894	0.105575
624.823	0.106445
626.751	0.106697
628.68	0.107216
630.608	0.107639
632.537	0.107515
634.465	0.106934
636.394	0.107036
638.322	0.107821
640.251	0.108187
642.179	0.108456
644.108	0.108768
646.036	0.109557
647.965	0.110302
649.893	0.110894
651.822	0.111582
653.75	0.112101
655.678	0.112626
657.607	0.113175
659.535	0.113579
661.464	0.114481
663.392	0.11547
665.321	0.116164
667.249	0.116717
669.178	0.11668
671.106	0.116805
673.035	0.117096
674.963	0.117216
676.892	0.117256
678.82	0.116581
680.749	0.115384
682.677	0.114592
684.606	0.114847
686.534	0.115352
688.462	0.115002
690.391	0.115149
692.319	0.115904
694.248	0.116703
696.176	0.117185
698.105	0.118352
700.033	0.118786
