Measurement: Infrared, Infrared Data Processed
Mineral: Stephanite
Rruff sample: R050143
Ideal chemistry: Ag^1+^_5_Sb^3+^S^2-^_4_
Locality: Proano mine, Fresnillo, Zacatecas, Mexico
Source: Dave Bunk Minerals
Description: Group of black pseudohexagonal crystals
Measured chemistry: Ag_5.00_Sb_1.00_S_4.00_
x	intensity
399.193	0.224732
408.835	0.235518
418.477	0.241498
428.12	0.250535
437.762	0.257022
447.404	0.262488
457.047	0.269705
466.689	0.275099
476.331	0.279036
485.974	0.285012
495.616	0.289825
505.258	0.293904
514.901	0.298862
524.543	0.303527
534.185	0.307026
543.828	0.312854
553.47	0.313343
563.112	0.317717
572.755	0.321896
582.397	0.323353
592.039	0.327435
601.682	0.331226
611.324	0.334628
620.966	0.338224
630.609	0.342159
640.251	0.345512
649.893	0.346873
659.536	0.346971
669.178	0.348718
678.82	0.350906
688.463	0.351733
698.105	0.354258
707.747	0.356592
717.39	0.358632
727.032	0.360965
736.674	0.363005
746.317	0.365047
755.959	0.36738
765.601	0.369616
775.244	0.371754
784.886	0.374765
794.528	0.377681
804.171	0.380208
813.813	0.382539
823.455	0.383998
833.098	0.384874
842.74	0.387279
852.382	0.388373
862.025	0.391579
871.667	0.394397
881.309	0.395368
890.952	0.397117
900.594	0.399755
910.236	0.40265
919.879	0.404326
929.521	0.40654
939.163	0.409274
948.806	0.413152
958.448	0.415136
968.09	0.415405
977.733	0.417673
987.375	0.421508
997.017	0.42505
1006.66	0.429837
1016.3	0.433761
1025.94	0.43492
1035.59	0.435749
1045.23	0.438571
1054.87	0.441039
1064.51	0.442323
1074.16	0.442733
1083.8	0.445021
1093.44	0.447669
1103.08	0.449867
1112.72	0.451404
1122.37	0.451343
1132.01	0.45224
1141.65	0.455272
1151.3	0.456472
1160.94	0.45678
1170.58	0.457768
1180.22	0.459321
1189.86	0.461823
1199.51	0.463983
1209.15	0.465255
1218.79	0.466785
1228.43	0.467623
1238.08	0.469077
1247.72	0.470668
1257.36	0.471295
1267	0.471957
1276.64	0.473946
1286.29	0.476172
1295.93	0.478391
1305.57	0.480088
1315.21	0.481537
1324.86	0.48357
1334.5	0.485867
1344.14	0.488208
1353.78	0.490089
1363.43	0.4928
1373.07	0.495221
1382.71	0.498111
1392.35	0.500707
1401.99	0.502998
1411.64	0.505343
1421.28	0.507208
1430.92	0.508789
1440.57	0.509863
1450.21	0.510988
1459.85	0.511829
1469.49	0.512054
1479.13	0.511674
1488.78	0.51246
1498.42	0.513681
1508.06	0.515407
1517.7	0.516202
1527.35	0.517401
1536.99	0.51928
1546.63	0.520574
1556.27	0.521828
1565.91	0.524033
1575.56	0.525059
1585.2	0.527272
1594.84	0.528566
1604.48	0.530338
1614.13	0.531811
1623.77	0.533087
1633.41	0.534875
1643.05	0.536417
1652.7	0.538343
1662.34	0.539212
1671.98	0.541132
1681.62	0.542609
1691.27	0.543933
1700.91	0.545383
1710.55	0.547152
1720.19	0.548979
1729.84	0.550645
1739.48	0.551948
1749.12	0.551623
1758.76	0.552517
1768.4	0.553106
1778.05	0.553997
1787.69	0.555545
1797.33	0.555795
1806.97	0.556712
1816.62	0.557184
1826.26	0.558735
1835.9	0.560186
1845.54	0.560859
1855.18	0.562384
1864.83	0.563789
1874.47	0.563791
1884.11	0.565317
1893.75	0.566677
1903.4	0.568044
1913.04	0.569407
1922.68	0.57077
1932.32	0.572131
1941.97	0.573493
1951.61	0.574852
1961.25	0.576198
1970.89	0.577562
1980.54	0.578931
1990.18	0.580307
1999.82	0.581659
2009.46	0.583014
2019.11	0.584384
2028.75	0.585743
2038.39	0.587131
2048.03	0.588506
2057.67	0.589878
2067.32	0.591257
2076.96	0.592625
2086.6	0.593994
2096.24	0.595358
2105.89	0.596724
2115.53	0.598093
2125.17	0.599452
2134.81	0.600807
2144.45	0.602161
2154.1	0.603497
2163.74	0.60488
2173.38	0.606252
2183.02	0.607623
2192.67	0.609007
2202.31	0.610367
2211.95	0.611741
2221.59	0.61311
2231.24	0.614483
2240.88	0.615849
2250.52	0.617217
2260.16	0.618597
2269.8	0.619965
2279.45	0.621335
2289.09	0.622711
2298.73	0.624082
2308.38	0.625452
2318.02	0.626821
2327.66	0.628191
2337.3	0.629557
2346.94	0.630818
2356.59	0.631934
2366.23	0.633041
2375.87	0.634148
2385.51	0.635256
2395.16	0.636366
2404.8	0.637481
2414.44	0.638586
2424.08	0.639699
2433.72	0.641007
2443.37	0.642087
2453.01	0.643533
2462.65	0.644383
2472.29	0.64506
2481.94	0.647543
2491.58	0.647903
2501.22	0.649794
2510.86	0.650158
2520.51	0.65009
2530.15	0.653035
2539.79	0.653616
2549.43	0.65501
2559.07	0.656157
2568.72	0.657862
2578.36	0.659613
2588	0.662218
2597.64	0.662256
2607.29	0.664796
2616.93	0.66732
2626.57	0.669485
2636.21	0.672123
2645.86	0.672314
2655.5	0.673902
2665.14	0.675266
2674.78	0.676554
2684.43	0.678137
2694.07	0.679663
2703.71	0.681108
2713.35	0.682407
2722.99	0.683565
2732.64	0.684858
2742.28	0.686251
2751.92	0.687447
2761.56	0.688227
2771.21	0.689265
2780.85	0.690465
2790.49	0.692043
2800.13	0.693355
2809.78	0.695727
2819.42	0.69746
2829.06	0.69848
2838.7	0.700773
2848.34	0.703877
2857.99	0.705868
2867.63	0.706036
2877.27	0.70624
2886.91	0.707655
2896.56	0.710189
2906.2	0.71214
2915.84	0.715891
2925.48	0.716408
2935.13	0.715716
2944.77	0.715469
2954.41	0.717333
2964.05	0.716821
2973.7	0.715771
2983.34	0.715075
2992.98	0.717344
3002.62	0.717653
3012.26	0.720097
3021.91	0.721831
3031.55	0.722843
3041.19	0.724812
3050.83	0.725055
3060.48	0.726398
3070.12	0.727752
3079.76	0.730079
3089.4	0.729931
3099.05	0.733553
3108.69	0.733923
3118.33	0.735201
3127.97	0.736487
3137.61	0.738841
3147.26	0.740257
3156.9	0.740608
3166.54	0.742125
3176.18	0.741835
3185.83	0.744873
3195.47	0.744584
3205.11	0.746848
3214.75	0.74802
3224.4	0.749471
3234.04	0.750116
3243.68	0.752177
3253.32	0.754472
3262.97	0.754518
3272.61	0.757399
3282.25	0.758424
3291.89	0.759284
3301.53	0.760537
3311.18	0.761867
3320.82	0.762293
3330.46	0.764296
3340.1	0.764801
3349.75	0.765877
3359.39	0.766521
3369.03	0.768462
3378.67	0.769475
3388.32	0.770897
3397.96	0.772321
3407.6	0.774399
3417.24	0.774066
3426.89	0.77769
3436.53	0.778978
3446.17	0.778774
3455.81	0.781268
3465.45	0.780012
3475.1	0.782096
3484.74	0.782506
3494.38	0.784175
3504.02	0.781935
3513.67	0.784713
3523.31	0.787675
3532.95	0.786578
3542.59	0.786778
3552.24	0.788834
3561.88	0.790178
3571.52	0.790837
3581.16	0.793858
3590.8	0.792332
3600.45	0.796528
3610.09	0.79658
3619.73	0.797198
3629.37	0.798202
3639.02	0.798481
3648.66	0.803192
3658.3	0.801617
3667.94	0.803827
3677.59	0.804542
3687.23	0.806976
3696.87	0.810173
3706.51	0.811403
3716.16	0.811724
3725.8	0.814562
3735.44	0.817978
3745.08	0.817502
3754.72	0.817229
3764.37	0.817438
3774.01	0.820261
3783.65	0.821003
3793.29	0.824663
3802.94	0.824355
3812.58	0.825846
3822.22	0.828865
3831.86	0.829148
3841.51	0.831611
3851.15	0.833349
3860.79	0.83369
3870.43	0.835486
3880.07	0.835596
3889.72	0.835948
3899.36	0.841389
3909	0.840931
3918.64	0.842602
3928.29	0.844846
3937.93	0.845536
3947.57	0.846564
3957.21	0.848253
3966.86	0.849671
3976.5	0.849649
3986.14	0.850086
3995.78	0.853396
