Measurement: Infrared, Infrared Data Processed
Mineral: Strontianite
Rruff sample: R050476
Ideal chemistry: SrCO_3_
Locality: Fidalgo Island, Puget Sound, Washington, USA
Source: California Institute of Technology
Description: Aggregate of colorless spheres
Measured chemistry: (Sr_0.86_Ca_0.14_)CO_3_
x	intensity
50.1401	0.0196189
52.0686	0.0184094
53.9971	0.0158152
55.9255	0.0147066
57.854	0.0144488
59.7825	0.0255034
61.7109	0.0246821
63.6394	0.0194525
65.5679	0.0174245
67.4963	0.0139844
69.4248	0.0155831
71.3533	0.0181894
73.2817	0.0185414
75.2102	0.0178119
77.1387	0.0189007
79.0671	0.0210626
80.9956	0.0208026
82.9241	0.0208008
84.8525	0.0207421
86.781	0.0208421
88.7095	0.0215983
90.6379	0.0225787
92.5664	0.0222576
94.4948	0.0225257
96.4233	0.0232636
98.3518	0.0235199
100.28	0.024264
102.209	0.0251615
104.137	0.024669
106.066	0.0249967
107.994	0.0255854
109.923	0.0267686
111.851	0.027202
113.779	0.0273699
115.708	0.0281287
117.636	0.028784
119.565	0.0293298
121.493	0.0300348
123.422	0.0298313
125.35	0.0306922
127.279	0.0321987
129.207	0.0329205
131.136	0.0332226
133.064	0.0336297
134.993	0.0338218
136.921	0.0349172
138.85	0.035858
140.778	0.0361288
142.707	0.0360538
144.635	0.0360986
146.563	0.0365907
148.492	0.0374975
150.42	0.0377258
152.349	0.0389514
154.277	0.0403648
156.206	0.0411047
158.134	0.0417775
160.063	0.0430321
161.991	0.0439886
163.92	0.0449971
165.848	0.0461251
167.777	0.0480038
169.705	0.0494433
171.633	0.0506826
173.562	0.0512283
175.49	0.052405
177.419	0.0532864
179.347	0.0533022
181.276	0.052636
183.204	0.0528144
185.133	0.0527834
187.061	0.0521872
188.99	0.0516968
190.918	0.0519408
192.847	0.0526348
194.775	0.0534875
196.704	0.0542135
198.632	0.0550422
200.56	0.0558814
202.489	0.0569515
204.417	0.0574936
206.346	0.0577577
208.274	0.0579183
210.203	0.0581025
212.131	0.0577916
214.06	0.0575992
215.988	0.0572518
217.917	0.056947
219.845	0.0567756
221.774	0.0564516
223.702	0.0554374
225.631	0.0546827
227.559	0.0540679
229.488	0.053305
231.416	0.0524099
233.344	0.0512757
235.273	0.0502454
237.201	0.049432
239.13	0.0483041
241.058	0.0475836
242.987	0.0468036
244.915	0.0456167
246.844	0.0444845
248.772	0.0435884
250.701	0.042532
252.629	0.0418851
254.558	0.0407748
256.486	0.0397372
258.414	0.0387221
260.343	0.0377105
262.271	0.0371623
264.2	0.0367247
266.128	0.0360563
268.057	0.0353083
269.985	0.034159
271.914	0.0330249
273.842	0.032103
275.771	0.0314807
277.699	0.0310941
279.628	0.0305585
281.556	0.0293645
283.485	0.0280022
285.413	0.0269455
287.341	0.026302
289.27	0.0256292
291.198	0.0251938
293.127	0.0246637
295.055	0.023858
296.984	0.0229926
298.912	0.0226146
300.841	0.0221415
302.769	0.0215006
304.698	0.0212011
306.626	0.0208429
308.555	0.0202028
310.483	0.0196665
312.411	0.0194838
314.34	0.0191907
316.269	0.0188935
318.197	0.0187556
320.125	0.0184513
322.054	0.0183395
323.982	0.0184285
325.911	0.0183424
327.839	0.0179864
329.768	0.0176449
331.696	0.0177032
333.625	0.0179629
335.553	0.0181005
337.482	0.0180309
339.41	0.0178947
341.339	0.0177767
343.267	0.0176659
345.195	0.0176965
347.124	0.0176119
349.052	0.0176159
350.981	0.0176138
352.909	0.017653
354.838	0.017729
356.766	0.0177871
358.695	0.0177232
360.623	0.0176363
362.552	0.0174862
364.48	0.0173277
366.409	0.0171996
368.337	0.0171591
370.265	0.0173461
372.194	0.0175084
374.122	0.0176614
376.051	0.017542
377.979	0.0172454
379.908	0.0170846
381.836	0.0171161
383.765	0.0172895
385.693	0.0172735
387.622	0.0171985
389.55	0.0170312
391.479	0.0169944
393.407	0.0171475
395.336	0.0171205
397.264	0.0171644
399.192	0.017149
401.121	0.0170725
403.049	0.0172221
404.978	0.0173959
406.906	0.0174907
408.835	0.0174377
410.763	0.0175055
412.692	0.0175953
414.62	0.0177491
416.549	0.0178849
418.477	0.0179247
420.406	0.0182406
422.334	0.0184678
424.262	0.0185187
426.191	0.0184229
428.12	0.0185318
430.048	0.0187527
431.976	0.0187764
433.905	0.0188752
435.833	0.0189955
437.762	0.0189417
439.69	0.0190055
441.619	0.0189979
443.547	0.0189956
445.476	0.0191128
447.404	0.0192544
449.333	0.0191393
451.261	0.0192162
453.19	0.019465
455.118	0.0195661
457.046	0.0195238
458.975	0.0196139
460.903	0.0199023
462.832	0.0201865
464.76	0.0202468
466.689	0.0201555
468.617	0.020591
470.546	0.020957
472.474	0.0208364
474.403	0.020696
476.331	0.0206859
478.26	0.0205705
480.188	0.0206632
482.116	0.0204116
484.045	0.0204888
485.974	0.0203969
487.902	0.0204046
489.83	0.0209572
491.759	0.0212016
493.687	0.020994
495.616	0.0211591
497.544	0.0216701
499.473	0.0217334
501.401	0.0214972
503.33	0.021606
505.258	0.0219646
507.187	0.0220177
509.115	0.0217303
511.043	0.0213285
512.972	0.0213298
514.9	0.0217808
516.829	0.0220083
518.757	0.0218576
520.686	0.0218372
522.614	0.0219378
524.543	0.0221076
526.471	0.0223292
528.4	0.0225168
530.328	0.0224764
532.257	0.0224327
534.185	0.0228531
536.114	0.0230682
538.042	0.022971
539.971	0.0227058
541.899	0.022608
543.827	0.0227663
545.756	0.0229471
547.684	0.0231334
549.613	0.023331
551.541	0.0233268
553.47	0.0232158
555.398	0.0229106
557.327	0.0227941
559.255	0.0230026
561.184	0.0233236
563.112	0.0238138
565.041	0.0239544
566.969	0.0238795
568.898	0.0238987
570.826	0.0245273
572.755	0.0249676
574.683	0.024857
576.611	0.0248608
578.54	0.0249223
580.468	0.0248808
582.397	0.0251073
584.325	0.0247445
586.254	0.0247087
588.182	0.0247809
590.111	0.0243149
592.039	0.0243642
593.968	0.0244976
595.896	0.02434
597.824	0.0240715
599.753	0.023776
601.682	0.0232189
603.61	0.0231484
605.538	0.0232219
607.467	0.0233119
609.395	0.0231954
611.324	0.0227247
613.252	0.0232912
615.181	0.0241214
617.109	0.0242207
619.038	0.0235671
620.966	0.0237698
622.894	0.0246675
624.823	0.0257055
626.751	0.0269097
628.68	0.0285206
630.608	0.0297303
632.537	0.0304908
634.465	0.0309416
636.394	0.0309717
638.322	0.0309791
640.251	0.0312503
642.179	0.0315998
644.108	0.03178
646.036	0.0322097
647.965	0.0325376
649.893	0.032604
651.822	0.0329171
653.75	0.033016
655.678	0.033176
657.607	0.0333113
659.535	0.0332161
661.464	0.0334438
663.392	0.0337668
665.321	0.0341916
667.249	0.0347838
669.178	0.035255
671.106	0.0352094
673.035	0.0353351
674.963	0.0357796
676.892	0.0361124
678.82	0.0362278
680.749	0.036008
682.677	0.0366162
684.606	0.037507
686.534	0.0382323
688.462	0.0387692
690.391	0.0399493
692.319	0.0424848
694.248	0.0461263
696.176	0.0501462
698.105	0.0537698
700.033	0.0564055
