Measurement: Infrared, Infrared Data Processed
Mineral: Struvite
Rruff sample: R050540
Ideal chemistry: (N^3-^H_4_)MgPO_4_6H_2_O
Locality: Hamburg, Germany
Source: University of Arizona Mineral Museum
Description: Yellowish-brown wedge-shaped crystal
Measured chemistry: (NH_4_)(Mg_0.74_Fe^2+^_0.14_Ca_0.09_Mn_0.03_)_Σ=1_(P_1.00_O_4_)·6H_2_O ; NH_4_ not measured but estimated by charge balance.
x	intensity
399.193	0.247932
408.835	0.226159
418.477	0.250945
428.12	0.274027
437.762	0.280488
447.404	0.276315
457.047	0.288089
466.689	0.275933
476.331	0.25182
485.974	0.241969
495.616	0.255939
505.258	0.284185
514.901	0.286015
524.543	0.29313
534.185	0.326255
543.828	0.38158
553.47	0.485418
563.112	0.560637
572.755	0.476342
582.397	0.288239
592.039	0.197423
601.682	0.181402
611.324	0.186414
620.966	0.197047
630.609	0.216123
640.251	0.22747
649.893	0.242757
659.536	0.260919
669.178	0.282164
678.82	0.300364
688.463	0.306166
698.105	0.296507
707.747	0.292481
717.39	0.302579
727.032	0.317396
736.674	0.340788
746.317	0.358187
755.959	0.356321
765.601	0.328185
775.244	0.29514
784.886	0.251335
794.528	0.22213
804.171	0.206713
813.813	0.197194
823.455	0.200494
833.098	0.211083
842.74	0.225074
852.382	0.239943
862.025	0.259296
871.667	0.291446
881.309	0.316805
890.952	0.279045
900.594	0.266209
910.236	0.257103
919.879	0.26112
929.521	0.29188
939.163	0.355745
948.806	0.457265
958.448	0.578224
968.09	0.703201
977.733	0.770979
987.375	0.732622
997.017	0.604989
1006.66	0.453643
1016.3	0.323669
1025.94	0.238923
1035.59	0.189118
1045.23	0.169254
1054.87	0.133641
1064.51	0.0992679
1074.16	0.084205
1083.8	0.0820996
1093.44	0.0722022
1103.08	0.0528101
1112.72	0.0414348
1122.37	0.0363906
1132.01	0.0337957
1141.65	0.0326268
1151.3	0.0348376
1160.94	0.0427372
1170.58	0.0454397
1180.22	0.0338889
1189.86	0.0267244
1199.51	0.0225075
1209.15	0.0213016
1218.79	0.0228907
1228.43	0.0272617
1238.08	0.0303056
1247.72	0.0263641
1257.36	0.0241557
1267	0.0249671
1276.64	0.0265392
1286.29	0.0265974
1295.93	0.0291019
1305.57	0.0341043
1315.21	0.0389602
1324.86	0.0359045
1334.5	0.0339289
1344.14	0.0327719
1353.78	0.0335455
1363.43	0.0372702
1373.07	0.0452999
1382.71	0.0523894
1392.35	0.0546746
1401.99	0.0633646
1411.64	0.0806908
1421.28	0.118651
1430.92	0.180529
1440.57	0.155732
1450.21	0.124202
1459.85	0.100002
1469.49	0.102057
1479.13	0.0759829
1488.78	0.0581917
1498.42	0.05269
1508.06	0.0528749
1517.7	0.055471
1527.35	0.0585648
1536.99	0.061957
1546.63	0.0665613
1556.27	0.070795
1565.91	0.0752817
1575.56	0.0794411
1585.2	0.0826957
1594.84	0.0856408
1604.48	0.0871597
1614.13	0.0869944
1623.77	0.0856741
1633.41	0.0844657
1643.05	0.0854736
1652.7	0.0856232
1662.34	0.0821077
1671.98	0.0788753
1681.62	0.0750604
1691.27	0.0697048
1700.91	0.0618157
1710.55	0.0545334
1720.19	0.0494206
1729.84	0.0455311
1739.48	0.0423615
1749.12	0.0418524
1758.76	0.0427146
1768.4	0.0423282
1778.05	0.0417775
1787.69	0.0414503
1797.33	0.0409955
1806.97	0.0399437
1816.62	0.0381397
1826.26	0.0372025
1835.9	0.035461
1845.54	0.0342266
1855.18	0.0326605
1864.83	0.0312411
1874.47	0.0302859
1884.11	0.0294955
1893.75	0.0279797
1903.4	0.0280475
1913.04	0.0267611
1922.68	0.025415
1932.32	0.0252254
1941.97	0.023151
1951.61	0.020853
1961.25	0.0193816
1970.89	0.0178744
1980.54	0.020518
1990.18	0.0210856
1999.82	0.0188655
2009.46	0.0205789
2019.11	0.0210143
2028.75	0.0196557
2038.39	0.0213339
2048.03	0.0233592
2057.67	0.0237461
2067.32	0.0247206
2076.96	0.0250649
2086.6	0.0250272
2096.24	0.0242584
2105.89	0.0260365
2115.53	0.0256508
2125.17	0.0249197
2134.81	0.0241151
2144.45	0.024668
2154.1	0.022903
2163.74	0.0292335
2173.38	0.0300072
2183.02	0.0310026
2192.67	0.0320197
2202.31	0.0353712
2211.95	0.0369876
2221.59	0.0395344
2231.24	0.0415343
2240.88	0.0467786
2250.52	0.04939
2260.16	0.054092
2269.8	0.0589935
2279.45	0.0647032
2289.09	0.069582
2298.73	0.0748763
2308.38	0.0799633
2318.02	0.0851133
2327.66	0.0883473
2337.3	0.0914655
2346.94	0.0931323
2356.59	0.0934202
2366.23	0.0935498
2375.87	0.0935413
2385.51	0.0931324
2395.16	0.0921103
2404.8	0.0915145
2414.44	0.0914899
2424.08	0.09109
2433.72	0.0910965
2443.37	0.0909549
2453.01	0.0910034
2462.65	0.0915425
2472.29	0.0919948
2481.94	0.0923718
2491.58	0.0925838
2501.22	0.0938152
2510.86	0.0943183
2520.51	0.0950242
2530.15	0.0970042
2539.79	0.0979982
2549.43	0.100382
2559.07	0.1011
2568.72	0.103556
2578.36	0.105795
2588	0.107664
2597.64	0.110199
2607.29	0.111772
2616.93	0.114753
2626.57	0.116945
2636.21	0.119803
2645.86	0.122589
2655.5	0.125729
2665.14	0.128212
2674.78	0.131919
2684.43	0.135078
2694.07	0.13872
2703.71	0.142915
2713.35	0.147464
2722.99	0.151617
2732.64	0.156427
2742.28	0.160682
2751.92	0.166473
2761.56	0.171097
2771.21	0.176481
2780.85	0.182543
2790.49	0.188073
2800.13	0.194889
2809.78	0.199989
2819.42	0.206064
2829.06	0.211107
2838.7	0.216526
2848.34	0.219805
2857.99	0.223735
2867.63	0.230449
2877.27	0.233916
2886.91	0.235511
2896.56	0.236611
2906.2	0.233381
2915.84	0.230642
2925.48	0.227748
2935.13	0.224533
2944.77	0.220168
2954.41	0.217276
2964.05	0.220302
2973.7	0.22115
2983.34	0.205257
2992.98	0.194682
3002.62	0.188641
3012.26	0.184865
3021.91	0.181526
3031.55	0.176795
3041.19	0.172565
3050.83	0.169716
3060.48	0.166225
3070.12	0.162705
3079.76	0.160291
3089.4	0.157413
3099.05	0.1541
3108.69	0.14997
3118.33	0.146595
3127.97	0.143896
3137.61	0.140282
3147.26	0.137205
3156.9	0.135406
3166.54	0.135769
3176.18	0.13487
3185.83	0.134394
3195.47	0.133312
3205.11	0.132253
3214.75	0.13069
3224.4	0.130248
3234.04	0.127646
3243.68	0.123903
3253.32	0.11859
3262.97	0.110978
3272.61	0.102746
3282.25	0.0948349
3291.89	0.0878943
3301.53	0.08147
3311.18	0.0757839
3320.82	0.0708945
3330.46	0.0687254
3340.1	0.0654506
3349.75	0.0620357
3359.39	0.0595775
3369.03	0.0580721
3378.67	0.0561881
3388.32	0.0553938
3397.96	0.0529247
3407.6	0.0511871
3417.24	0.0501615
3426.89	0.0488453
3436.53	0.045293
3446.17	0.0430303
3455.81	0.0425622
3465.45	0.0413223
3475.1	0.0393117
3484.74	0.0387187
3494.38	0.0358235
3504.02	0.0319092
3513.67	0.0303551
3523.31	0.0278641
3532.95	0.0239526
3542.59	0.0217384
3552.24	0.0211534
3561.88	0.0187024
3571.52	0.0165975
3581.16	0.0153294
3590.8	0.0139709
3600.45	0.0117263
3610.09	0.0101244
3619.73	0.0093198
3629.37	0.00672385
3639.02	0.00528708
3648.66	0.00358091
3658.3	0.00329492
3667.94	0.00145038
3677.59	0.00148296
3687.23	0.00135644
3696.87	0.00152728
3706.51	0.00133679
3716.16	0.000721762
3725.8	0.00079651
3735.44	0.000940069
3745.08	0.000277387
3754.72	-0.000101213
3764.37	0.000815565
3774.01	0.000552198
3783.65	-8.84258e-05
3793.29	0.00104737
3802.94	0.000869445
3812.58	0.00048396
3822.22	0.000877945
3831.86	6.66377e-05
3841.51	0.000964874
3851.15	0.00119526
3860.79	0.000782768
3870.43	0.00108995
3880.07	0.000347516
3889.72	0.000759533
3899.36	0.00130871
3909	0.000960989
3918.64	0.000514213
3928.29	0.000821673
3937.93	0.000843683
3947.57	0.00103458
3957.21	0.00183456
3966.86	0.000227094
3976.5	0.000766304
3986.14	0.00169406
3995.78	0.00123912
