Measurement: Infrared, Infrared Data Processed
Mineral: Sulphohalite
Rruff sample: R050479
Ideal chemistry: Na_6_(S^6+^O_4_)_2_ClF
Locality: Searles Lake, Trona, San Bernardino County, California, USA
Source: California Institute of Technology
Description: A pair of colorless octahedra
Measured chemistry: Na_6.00_(S_1.00_O_4_)_2_F_1.00_Cl_1.00_
x	intensity
374.123	0.0121151
383.765	0.0107208
393.407	0.0104171
403.05	0.00878027
412.692	0.00778681
422.334	0.00541788
431.976	0.00527298
441.619	0.00645696
451.261	0.00685261
460.904	0.00584757
470.546	0.00675911
480.188	0.00441658
489.83	0.00592511
499.473	0.00664094
509.115	0.00695311
518.758	0.00695629
528.4	0.00775456
538.042	0.00864681
547.684	0.00914618
557.327	0.0104961
566.969	0.0123428
576.611	0.0148415
586.254	0.0195541
595.896	0.0277025
605.538	0.0540882
615.181	0.234503
624.823	0.328298
634.466	0.062811
644.108	0.0121574
653.75	0.00874069
663.393	0.00721971
673.035	0.00679315
682.677	0.00651098
692.319	0.00525812
701.962	0.00404109
711.604	0.00422044
721.246	0.00439195
730.889	0.00417471
740.531	0.00464878
750.173	0.00533947
759.816	0.00544882
769.458	0.00586301
779.101	0.00563998
788.743	0.0059604
798.385	0.00611422
808.028	0.00600805
817.67	0.00628918
827.312	0.00646543
836.955	0.00720384
846.597	0.0102422
856.239	0.00884389
865.881	0.00717649
875.524	0.00786456
885.166	0.0078565
894.808	0.00778882
904.451	0.00847893
914.093	0.00906698
923.736	0.00994659
933.378	0.0102531
943.02	0.0108527
952.663	0.0117554
962.305	0.0131828
971.947	0.0153072
981.59	0.019241
991.232	0.0347852
1000.87	0.0255912
1010.52	0.0273647
1020.16	0.0307433
1029.8	0.0348462
1039.44	0.0418072
1049.09	0.0533966
1058.73	0.0754479
1068.37	0.107743
1078.01	0.165704
1087.65	0.2743
1097.3	0.416681
1106.94	0.505983
1116.58	0.559722
1126.22	0.61574
1135.87	0.546673
1145.51	0.344446
1155.15	0.215117
1164.79	0.136602
1174.44	0.0828195
1184.08	0.0390781
1193.72	0.0319382
1203.36	0.0331841
1213.01	0.0195719
1222.65	0.00933277
1232.29	0.00579939
1241.93	0.00449973
1251.58	0.00417996
1261.22	0.00405831
1270.86	0.00307406
1280.5	0.00208986
1290.14	0.00141451
1299.79	0.00117657
1309.43	0.00152518
1319.07	0.00141073
1328.71	0.00164017
1338.36	0.00195175
1348	0.00198473
1357.64	0.00242888
1367.28	0.00192471
1376.92	0.00205419
1386.57	0.00241342
1396.21	0.0027412
1405.85	0.00374727
1415.49	0.00514797
1425.14	0.00623208
1434.78	0.00643778
1444.42	0.00637167
1454.06	0.00666735
1463.71	0.00752958
1473.35	0.00751353
1482.99	0.00581109
1492.63	0.00382962
1502.28	0.00222566
1511.92	0.00141207
1521.56	0.000872309
1531.2	0.000362143
1540.85	0.00131692
1550.49	0.00128413
1560.13	0.00306147
1569.77	0.00482992
1579.41	0.00659418
1589.06	0.00648247
1598.7	0.00519864
1608.34	0.00422947
1617.98	0.00381582
1627.63	0.00301766
1637.27	0.00190393
1646.91	0.00146268
1656.55	0.000929035
1666.19	0.00109046
1675.84	0.00181345
1685.48	0.00252034
1695.12	0.00232795
1704.77	0.00135713
1714.41	0.000583789
1724.05	0.000127742
1733.69	-5.71548e-05
1743.33	-0.00163918
1752.98	-0.00147794
1762.62	-0.00220101
1772.26	-0.00172924
1781.9	-0.00217193
1791.55	-0.00203899
1801.19	-0.00262732
1810.83	-0.0024896
1820.47	-0.00259617
1830.12	-0.00313926
1839.76	-0.00299671
1849.4	-0.00317027
1859.04	-0.00293305
1868.68	-0.00292063
1878.33	-0.00309524
1887.97	-0.00380893
1897.61	-0.00434386
1907.25	-0.00402659
1916.9	-0.00381608
1926.54	-0.00459331
1936.18	-0.00465477
1945.82	-0.00474835
1955.46	-0.00462207
1965.11	-0.00511041
1974.75	-0.00463706
1984.39	-0.00302501
1994.04	-0.00492625
2003.68	-0.00581454
2013.32	-0.00449359
2022.96	-0.00350177
2032.6	-0.00416106
2042.25	-0.00388421
2051.89	-0.00449606
2061.53	-0.00464156
2071.17	-0.00449954
2080.82	-0.00376541
2090.46	-0.00505288
2100.1	-0.00466304
2109.74	-0.00218421
2119.39	-0.00199136
2129.03	-0.0055963
2138.67	-0.00616694
2148.31	-0.00860542
2157.95	-0.0131989
2167.6	-0.0112891
2177.24	-0.0111212
2186.88	-0.011201
2196.52	-0.0124309
2206.17	-0.0131833
2215.81	-0.0129218
2225.45	-0.0126903
2235.09	-0.0110076
2244.74	-0.0104062
2254.38	-0.0102859
2264.02	-0.0102301
2273.66	-0.0108066
2283.3	-0.00919825
2292.95	-0.00803478
2302.59	-0.00799826
2312.23	-0.00707556
2321.87	-0.00572202
2331.52	-0.00556824
2341.16	-0.0057444
2350.8	-0.0066299
2360.44	-0.00513217
2370.09	-0.00590751
2379.73	-0.00683658
2389.37	-0.00739832
2399.01	-0.00709356
2408.66	-0.00667951
2418.3	-0.00711214
2427.94	-0.00647436
2437.58	-0.00646829
2447.22	-0.00672442
2456.87	-0.00705503
2466.51	-0.00663545
2476.15	-0.00778921
2485.79	-0.00671827
2495.44	-0.00790667
2505.08	-0.00759092
2514.72	-0.00830529
2524.36	-0.00824441
2534.01	-0.00796219
2543.65	-0.00773659
2553.29	-0.0079624
2562.93	-0.00747028
2572.57	-0.00789669
2582.22	-0.0078126
2591.86	-0.00728065
2601.5	-0.00740271
2611.14	-0.00750836
2620.79	-0.00793214
2630.43	-0.00796202
2640.07	-0.00788044
2649.71	-0.00847053
2659.36	-0.00890461
2669	-0.00889249
2678.64	-0.00895139
2688.28	-0.00932572
2697.93	-0.00928095
2707.57	-0.00924238
2717.21	-0.00920079
2726.85	-0.00928428
2736.49	-0.00891751
2746.14	-0.00965694
2755.78	-0.00932043
2765.42	-0.00959995
2775.06	-0.00918437
2784.71	-0.00945095
2794.35	-0.00923101
2803.99	-0.00971818
2813.63	-0.00920386
2823.28	-0.00989674
2832.92	-0.00941106
2842.56	-0.01016
2852.2	-0.0112656
2861.84	-0.0108272
2871.49	-0.0104592
2881.13	-0.00987188
2890.77	-0.0101465
2900.41	-0.0105033
2910.06	-0.010431
2919.7	-0.0108659
2929.34	-0.0114262
2938.98	-0.0110242
2948.62	-0.0106001
2958.27	-0.010954
2967.91	-0.0113119
2977.55	-0.0110427
2987.2	-0.00981906
2996.84	-0.0101209
3006.48	-0.0104039
3016.12	-0.0104571
3025.76	-0.0105291
3035.41	-0.00972647
3045.05	-0.00983388
3054.69	-0.00981368
3064.33	-0.0106032
3073.98	-0.0102183
3083.62	-0.0106497
3093.26	-0.0100601
3102.9	-0.0115448
3112.55	-0.0107816
3122.19	-0.0103796
3131.83	-0.0114396
3141.47	-0.0104377
3151.11	-0.0101581
3160.76	-0.011213
3170.4	-0.0113772
3180.04	-0.0111497
3189.68	-0.0113305
3199.33	-0.0111526
3208.97	-0.0110615
3218.61	-0.0115097
3228.25	-0.0116516
3237.9	-0.0115615
3247.54	-0.0124408
3257.18	-0.0125657
3266.82	-0.0116945
3276.47	-0.0113573
3286.11	-0.0119247
3295.75	-0.0120005
3305.39	-0.0127863
3315.03	-0.0125305
3324.68	-0.0123735
3334.32	-0.0125107
3343.96	-0.0121303
3353.6	-0.0125237
3363.25	-0.0127686
3372.89	-0.0130538
3382.53	-0.0136283
3392.17	-0.0133667
3401.82	-0.0128641
3411.46	-0.0131863
3421.1	-0.0113069
3430.74	-0.0124543
3440.39	-0.012325
3450.03	-0.0102771
3459.67	-0.0108819
3469.31	-0.0105731
3478.95	-0.0110651
3488.6	-0.0124799
3498.24	-0.0131627
3507.88	-0.0137462
3517.52	-0.0147607
3527.17	-0.0145401
3536.81	-0.0152637
3546.45	-0.0154346
3556.09	-0.0161659
3565.74	-0.0166529
3575.38	-0.0167627
3585.02	-0.018043
3594.66	-0.0174925
3604.3	-0.0177245
3613.95	-0.0186429
3623.59	-0.0181735
3633.23	-0.0181372
3642.87	-0.0193225
3652.52	-0.0195161
3662.16	-0.0198869
3671.8	-0.02079
3681.44	-0.0202617
3691.09	-0.0186724
3700.73	-0.0191797
3710.37	-0.0183191
3720.01	-0.0190355
3729.66	-0.0184105
3739.3	-0.0190514
3748.94	-0.0186517
3758.58	-0.0183259
3768.22	-0.0187674
3777.87	-0.0197469
3787.51	-0.0200809
3797.15	-0.0200567
3806.79	-0.0190049
3816.44	-0.0201283
3826.08	-0.0210426
3835.72	-0.0218874
3845.36	-0.0208132
3855.01	-0.0210704
3864.65	-0.0214096
3874.29	-0.0221755
3883.93	-0.020644
3893.57	-0.0221936
3903.22	-0.0212243
3912.86	-0.0227365
3922.5	-0.0217402
3932.14	-0.0223823
3941.79	-0.0241565
3951.43	-0.0237794
3961.07	-0.0228664
3970.71	-0.022116
3980.36	-0.0225685
3990	-0.0221596
3999.64	-0.0224505
