Measurement: Infrared, Infrared Data Processed
Mineral: Sylvite
Rruff sample: R050166
Ideal chemistry: KCl
Locality: Salton Sea, Imperial County, California, USA
Source: Marcus Origlieri
Description: Pale blue octahedral crystals
x	intensity
50.1401	0.00581139
52.0686	0.00454066
53.9971	0.00563738
55.9255	0.00719753
57.854	0.0112308
59.7825	0.0131958
61.7109	0.0133976
63.6394	0.0154818
65.5679	0.0150632
67.4963	0.0164433
69.4248	0.0179999
71.3533	0.0203511
73.2817	0.0212053
75.2102	0.0202672
77.1387	0.0201999
79.0671	0.0211043
80.9956	0.021505
82.9241	0.0231814
84.8525	0.0245883
86.781	0.024587
88.7095	0.0252231
90.6379	0.0259154
92.5664	0.0260073
94.4948	0.0263289
96.4233	0.0278844
98.3518	0.0301913
100.28	0.030616
102.209	0.0312634
104.137	0.0320749
106.066	0.0330764
107.994	0.0345113
109.923	0.0367983
111.851	0.0387636
113.779	0.0404671
115.708	0.0417571
117.636	0.0426084
119.565	0.0438861
121.493	0.0455638
123.422	0.0465349
125.35	0.0493548
127.279	0.0513843
129.207	0.0527996
131.136	0.0546776
133.064	0.0565881
134.993	0.0571432
136.921	0.0575317
138.85	0.0560572
140.778	0.0531157
142.707	0.0501759
144.635	0.0483307
146.563	0.0463126
148.492	0.0450604
150.42	0.044015
152.349	0.0423413
154.277	0.040239
156.206	0.0386329
158.134	0.0370436
160.063	0.03488
161.991	0.0333543
163.92	0.032621
165.848	0.0319242
167.777	0.0314824
169.705	0.0309176
171.633	0.0290831
173.562	0.0277277
175.49	0.0269576
177.419	0.0257998
179.347	0.025195
181.276	0.0250626
183.204	0.0244679
185.133	0.023925
187.061	0.0237099
188.99	0.0232767
190.918	0.0229431
192.847	0.0229257
194.775	0.0226646
196.704	0.0225821
198.632	0.0222292
200.56	0.0222949
202.489	0.0227847
204.417	0.0225767
206.346	0.0228093
208.274	0.0235572
210.203	0.0239777
212.131	0.0247069
214.06	0.0244996
215.988	0.0232796
217.917	0.0218194
219.845	0.0204629
221.774	0.0192922
223.702	0.0184458
225.631	0.0181367
227.559	0.0183644
229.488	0.0180617
231.416	0.0179235
233.344	0.0179281
235.273	0.0177774
237.201	0.0176607
239.13	0.0178262
241.058	0.0175901
242.987	0.0173192
244.915	0.0172729
246.844	0.0172498
248.772	0.0168421
250.701	0.0163222
252.629	0.0165435
254.558	0.0163506
256.486	0.0154283
258.414	0.0152701
260.343	0.0152878
262.271	0.0152173
264.2	0.0150779
266.128	0.0151126
268.057	0.0149844
269.985	0.0149076
271.914	0.0147065
273.842	0.0147763
275.771	0.0152117
277.699	0.0157038
279.628	0.0156354
281.556	0.0154511
283.485	0.0152367
285.413	0.0151348
287.341	0.0153323
289.27	0.0155207
291.198	0.015344
293.127	0.0149913
295.055	0.0151167
296.984	0.0154606
298.912	0.0156983
300.841	0.01615
302.769	0.0167872
304.698	0.0164752
306.626	0.0161163
308.555	0.0163287
310.483	0.0163604
312.411	0.0161745
314.34	0.0159698
316.269	0.0160784
318.197	0.016292
320.125	0.0165347
322.054	0.0167347
323.982	0.0170506
325.911	0.0171491
327.839	0.0173306
329.768	0.0171727
331.696	0.0171077
333.625	0.0170571
335.553	0.0173464
337.482	0.0175228
339.41	0.0174708
341.339	0.0175565
343.267	0.0177543
345.195	0.0175808
347.124	0.0178967
349.052	0.018413
350.981	0.0186598
352.909	0.0185728
354.838	0.0183596
356.766	0.0185213
358.695	0.0187173
360.623	0.0186185
362.552	0.0189149
364.48	0.0188167
366.409	0.0186325
368.337	0.0188783
370.265	0.0190452
372.194	0.0191288
374.122	0.0195498
376.051	0.0196136
377.979	0.0195178
379.908	0.0196277
381.836	0.0197342
383.765	0.0200314
385.693	0.0202248
387.622	0.0199904
389.55	0.0200066
391.479	0.0201865
393.407	0.0203427
395.336	0.0203904
397.264	0.0206056
399.192	0.020753
401.121	0.0209213
403.049	0.020944
404.978	0.0209889
406.906	0.0210698
408.835	0.0212364
410.763	0.0214652
412.692	0.021515
414.62	0.0214439
416.549	0.0216126
418.477	0.021945
420.406	0.0220171
422.334	0.0219718
424.262	0.0221242
426.191	0.0225062
428.12	0.0228054
430.048	0.0228481
431.976	0.0231494
433.905	0.0234402
435.833	0.023504
437.762	0.023559
439.69	0.0236766
441.619	0.023604
443.547	0.0235939
445.476	0.0236257
447.404	0.0238514
449.333	0.023761
451.261	0.0238885
453.19	0.0241127
455.118	0.0241762
457.046	0.0245325
458.975	0.0248955
460.903	0.0248869
462.832	0.0250252
464.76	0.0250845
466.689	0.0254261
468.617	0.0258346
470.546	0.0258765
472.474	0.0256949
474.403	0.0256999
476.331	0.0259346
478.26	0.0260259
480.188	0.0256398
482.116	0.0252583
484.045	0.025273
485.974	0.0253184
487.902	0.0252401
489.83	0.0256921
491.759	0.0259787
493.687	0.0260216
495.616	0.0259913
497.544	0.0260294
499.473	0.0258453
501.401	0.0259811
503.33	0.0263102
505.258	0.0263109
507.187	0.026076
509.115	0.0260775
511.043	0.0261484
512.972	0.0258983
514.9	0.0256426
516.829	0.0258067
518.757	0.0263328
520.686	0.0268245
522.614	0.0268169
524.543	0.0269576
526.471	0.0270569
528.4	0.0269425
530.328	0.026991
532.257	0.0270627
534.185	0.0269349
536.114	0.0268198
538.042	0.0264033
539.971	0.0263319
541.899	0.0263355
543.827	0.0263598
545.756	0.0266484
547.684	0.0266767
549.613	0.0265704
551.541	0.0263839
553.47	0.0262323
555.398	0.0263362
557.327	0.0264617
559.255	0.0266713
561.184	0.0269361
563.112	0.0269564
565.041	0.0268559
566.969	0.026812
568.898	0.0268249
570.826	0.0271961
572.755	0.0274578
574.683	0.0274179
576.611	0.0276508
578.54	0.0277773
580.468	0.0278149
582.397	0.0277912
584.325	0.0274378
586.254	0.0274561
588.182	0.0273514
590.111	0.0273449
592.039	0.0273092
593.968	0.0271709
595.896	0.0268911
597.824	0.0265127
599.753	0.0256178
601.682	0.0248678
603.61	0.0242181
605.538	0.0242054
607.467	0.0241979
609.395	0.0241568
611.324	0.0241335
613.252	0.0245992
615.181	0.0248708
617.109	0.024791
619.038	0.0250951
620.966	0.0253901
622.894	0.0254487
624.823	0.0261253
626.751	0.02819
628.68	0.0304673
630.608	0.0321535
632.537	0.0330069
634.465	0.0331977
636.394	0.0333224
638.322	0.0334133
640.251	0.0335028
642.179	0.0337428
644.108	0.0342131
646.036	0.0343514
647.965	0.0346216
649.893	0.0347957
651.822	0.0350364
653.75	0.0352961
655.678	0.0356115
657.607	0.0358438
659.535	0.035999
661.464	0.0362779
663.392	0.036764
665.321	0.0368804
667.249	0.0372398
669.178	0.0379179
671.106	0.0379985
673.035	0.0380217
674.963	0.0381145
676.892	0.0382452
678.82	0.0387089
680.749	0.0389943
682.677	0.0390015
684.606	0.0384886
686.534	0.0386756
688.462	0.0391766
690.391	0.0397562
692.319	0.0406543
694.248	0.0410376
696.176	0.0410399
698.105	0.0416882
700.033	0.0425669
