Measurement: Infrared, Infrared Data Processed
Mineral: Tantalite-(Mn)
Rruff sample: R050600
Ideal chemistry: Mn^2+^Ta^5+^_2_O_6_
Locality: Shengus, Pakistan
Source: Wayne Thompson
Description: Black tabular crystal associated with white albite and colorless quartz
x	intensity
399.193	0.167486
408.835	0.206094
418.477	0.247987
428.12	0.283641
437.762	0.319966
447.404	0.325598
457.047	0.313385
466.689	0.310465
476.331	0.335191
485.974	0.342839
495.616	0.330103
505.258	0.31326
514.901	0.292561
524.543	0.285119
534.185	0.293951
543.828	0.2995
553.47	0.297173
563.112	0.284978
572.755	0.266955
582.397	0.249515
592.039	0.233778
601.682	0.225055
611.324	0.229796
620.966	0.251405
630.609	0.268059
640.251	0.250135
649.893	0.233183
659.536	0.22508
669.178	0.221981
678.82	0.221655
688.463	0.223926
698.105	0.222398
707.747	0.209824
717.39	0.189866
727.032	0.165949
736.674	0.144448
746.317	0.129061
755.959	0.123698
765.601	0.12382
775.244	0.124352
784.886	0.122181
794.528	0.119095
804.171	0.11535
813.813	0.118045
823.455	0.130979
833.098	0.147103
842.74	0.151981
852.382	0.137501
862.025	0.114088
871.667	0.0932164
881.309	0.0531345
890.952	0.0282545
900.594	0.0213041
910.236	0.0195873
919.879	0.0206503
929.521	0.0163705
939.163	0.0146858
948.806	0.0143601
958.448	0.0133874
968.09	0.0126045
977.733	0.0122742
987.375	0.0119544
997.017	0.011637
1006.66	0.0123216
1016.3	0.0125
1025.94	0.012852
1035.59	0.0130798
1045.23	0.0138676
1054.87	0.0141546
1064.51	0.0144611
1074.16	0.0148819
1083.8	0.0150294
1093.44	0.0157844
1103.08	0.0162802
1112.72	0.0168685
1122.37	0.0170093
1132.01	0.0173369
1141.65	0.0178226
1151.3	0.018267
1160.94	0.0183689
1170.58	0.0189578
1180.22	0.0192027
1189.86	0.0203941
1199.51	0.0206265
1209.15	0.0213325
1218.79	0.0220941
1228.43	0.0227329
1238.08	0.0232947
1247.72	0.0245294
1257.36	0.025693
1267	0.0267174
1276.64	0.0285255
1286.29	0.0286084
1295.93	0.0292169
1305.57	0.0292758
1315.21	0.0305116
1324.86	0.0313165
1334.5	0.0321969
1344.14	0.0328886
1353.78	0.034172
1363.43	0.0345974
1373.07	0.0362906
1382.71	0.0371711
1392.35	0.0384609
1401.99	0.0395871
1411.64	0.0403583
1421.28	0.0412141
1430.92	0.0422937
1440.57	0.0428555
1450.21	0.0431228
1459.85	0.0436364
1469.49	0.0441086
1479.13	0.0453493
1488.78	0.0464708
1498.42	0.0475568
1508.06	0.0490513
1517.7	0.0504622
1527.35	0.0515666
1536.99	0.0530498
1546.63	0.0545581
1556.27	0.0551911
1565.91	0.0555676
1575.56	0.056059
1585.2	0.0567636
1594.84	0.0576757
1604.48	0.0585519
1614.13	0.0587011
1623.77	0.0598547
1633.41	0.0611146
1643.05	0.0614166
1652.7	0.062258
1662.34	0.0626361
1671.98	0.0638082
1681.62	0.0652044
1691.27	0.066243
1700.91	0.0672548
1710.55	0.0677591
1720.19	0.0684281
1729.84	0.0692135
1739.48	0.0672033
1749.12	0.0680856
1758.76	0.0700776
1768.4	0.0712186
1778.05	0.0729517
1787.69	0.0737306
1797.33	0.0746644
1806.97	0.0756022
1816.62	0.0751872
1826.26	0.0768829
1835.9	0.0779205
1845.54	0.0776098
1855.18	0.0802321
1864.83	0.0810204
1874.47	0.0808975
1884.11	0.082143
1893.75	0.0831741
1903.4	0.0841202
1913.04	0.0861617
1922.68	0.0850211
1932.32	0.0857851
1941.97	0.0868165
1951.61	0.0876605
1961.25	0.0908755
1970.89	0.0881646
1980.54	0.0943246
1990.18	0.0928472
1999.82	0.0941078
2009.46	0.0931586
2019.11	0.0910083
2028.75	0.09373
2038.39	0.0949946
2048.03	0.0961048
2057.67	0.0988176
2067.32	0.0970404
2076.96	0.0994544
2086.6	0.0988258
2096.24	0.102666
2105.89	0.103135
2115.53	0.102214
2125.17	0.102669
2134.81	0.0993134
2144.45	0.104328
2154.1	0.101083
2163.74	0.108805
2173.38	0.106716
2183.02	0.108396
2192.67	0.1107
2202.31	0.112639
2211.95	0.107394
2221.59	0.112327
2231.24	0.111052
2240.88	0.111737
2250.52	0.113101
2260.16	0.113131
2269.8	0.115835
2279.45	0.117514
2289.09	0.11697
2298.73	0.117734
2308.38	0.117412
2318.02	0.119589
2327.66	0.120423
2337.3	0.120791
2346.94	0.119729
2356.59	0.121645
2366.23	0.121629
2375.87	0.121245
2385.51	0.12261
2395.16	0.12083
2404.8	0.123324
2414.44	0.124129
2424.08	0.125593
2433.72	0.125048
2443.37	0.127013
2453.01	0.128422
2462.65	0.12882
2472.29	0.128754
2481.94	0.129109
2491.58	0.130621
2501.22	0.128659
2510.86	0.130955
2520.51	0.131881
2530.15	0.13306
2539.79	0.131631
2549.43	0.13386
2559.07	0.135357
2568.72	0.136114
2578.36	0.135949
2588	0.138631
2597.64	0.138869
2607.29	0.138616
2616.93	0.138754
2626.57	0.140671
2636.21	0.13956
2645.86	0.140264
2655.5	0.141401
2665.14	0.141613
2674.78	0.14295
2684.43	0.142289
2694.07	0.143231
2703.71	0.143201
2713.35	0.14438
2722.99	0.14481
2732.64	0.144612
2742.28	0.146309
2751.92	0.147309
2761.56	0.148741
2771.21	0.149727
2780.85	0.14982
2790.49	0.14904
2800.13	0.151749
2809.78	0.151909
2819.42	0.153331
2829.06	0.153865
2838.7	0.153763
2848.34	0.154288
2857.99	0.15412
2867.63	0.153945
2877.27	0.157639
2886.91	0.156866
2896.56	0.158565
2906.2	0.157857
2915.84	0.159034
2925.48	0.15724
2935.13	0.15946
2944.77	0.159309
2954.41	0.160904
2964.05	0.161803
2973.7	0.162589
2983.34	0.162013
2992.98	0.163548
3002.62	0.163418
3012.26	0.162639
3021.91	0.166268
3031.55	0.16428
3041.19	0.167094
3050.83	0.168924
3060.48	0.168112
3070.12	0.169612
3079.76	0.168067
3089.4	0.169779
3099.05	0.173133
3108.69	0.170231
3118.33	0.169701
3127.97	0.172279
3137.61	0.172754
3147.26	0.17417
3156.9	0.173081
3166.54	0.175256
3176.18	0.174313
3185.83	0.177749
3195.47	0.175534
3205.11	0.176932
3214.75	0.176571
3224.4	0.178205
3234.04	0.17732
3243.68	0.177997
3253.32	0.181615
3262.97	0.181608
3272.61	0.181685
3282.25	0.180451
3291.89	0.183377
3301.53	0.181639
3311.18	0.185797
3320.82	0.18443
3330.46	0.181754
3340.1	0.187383
3349.75	0.185063
3359.39	0.185408
3369.03	0.187314
3378.67	0.188416
3388.32	0.187448
3397.96	0.186232
3407.6	0.18809
3417.24	0.188026
3426.89	0.189542
3436.53	0.189916
3446.17	0.188757
3455.81	0.18927
3465.45	0.190634
3475.1	0.189304
3484.74	0.188181
3494.38	0.192662
3504.02	0.190026
3513.67	0.191123
3523.31	0.193612
3532.95	0.19352
3542.59	0.190647
3552.24	0.198438
3561.88	0.192843
3571.52	0.194139
3581.16	0.198704
3590.8	0.196519
3600.45	0.197594
3610.09	0.198395
3619.73	0.197804
3629.37	0.195832
3639.02	0.198985
3648.66	0.196326
3658.3	0.197924
3667.94	0.199514
3677.59	0.205531
3687.23	0.19865
3696.87	0.202811
3706.51	0.202003
3716.16	0.202233
3725.8	0.2033
3735.44	0.205053
3745.08	0.207749
3754.72	0.197992
3764.37	0.205555
3774.01	0.210742
3783.65	0.208093
3793.29	0.208882
3802.94	0.206344
3812.58	0.206595
3822.22	0.210669
3831.86	0.213726
3841.51	0.212791
3851.15	0.216375
3860.79	0.210817
3870.43	0.213016
3880.07	0.213294
3889.72	0.218649
3899.36	0.209705
3909	0.21336
3918.64	0.219473
3928.29	0.218681
3937.93	0.220179
3947.57	0.223336
3957.21	0.223957
3966.86	0.217833
3976.5	0.220884
3986.14	0.221637
3995.78	0.220056
