Measurement: Infrared, Infrared Data Processed
Mineral: Tarbagataite
Rruff sample: R130041
Ideal chemistry: (K[box])CaFe^2+^_7_Ti^4+^_2_(Si_4_O_12_)_2_O_2_(OH)_5_
Locality: Verkhnee Espe deposit, Akjailyautas Mountains, Kazakhstan
Source: Elena Sokolova
Description: Flakes brown or pale golden brown, with a colorless to very pale yellow streak and a vitreous to pearly lustre. Associated with astrophyllite, zinc pyrophanite, columbite-(Mn) and quartz. Data from Stepanov et al (2012)
Measured chemistry: (K_0.76_Rb_0.18_Na_0.12_Cs_0.04__0.90_)_Σ=2_(Ca_0.62_Na_0.38_)_Σ=1_(Fe^2+^_3.51_Mn_2.94_Mg_0.28_Zr_0.02_Zn_0.02__0.23_)_Σ=7_(Ti_1.57_Nb_0.30_Sn_0.11_Zr_0.02_)_Σ=2_[(Si_4.045_Al_0.015_)_Σ=8.12_O_12_]_2_O_2_[(OH_4.65_F_0.35_]
x	intensity
3997.91	0.22418
3988.27	0.2231
3978.63	0.22183
3968.99	0.22079
3959.34	0.21933
3949.7	0.21788
3940.06	0.21735
3930.41	0.21606
3920.77	0.21477
3911.13	0.21355
3901.49	0.21361
3891.84	0.21146
3882.2	0.21049
3872.56	0.20918
3862.91	0.20867
3853.27	0.20842
3843.63	0.20532
3833.99	0.20452
3824.34	0.20307
3814.7	0.20266
3805.06	0.20126
3795.41	0.19986
3785.77	0.19807
3776.13	0.19726
3766.49	0.19681
3756.84	0.19599
3747.2	0.19637
3737.56	0.19397
3727.92	0.19233
3718.27	0.19104
3708.63	0.19115
3698.99	0.18937
3689.34	0.18917
3679.7	0.18759
3670.06	0.18768
3660.42	0.18758
3650.77	0.19004
3641.13	0.19721
3631.49	0.20465
3621.84	0.20613
3612.2	0.2047
3602.56	0.20454
3592.92	0.2037
3583.27	0.19935
3573.63	0.19619
3563.99	0.19522
3554.34	0.19316
3544.7	0.19175
3535.06	0.19453
3525.42	0.19459
3515.77	0.19051
3506.13	0.18878
3496.49	0.18639
3486.84	0.18426
3477.2	0.18286
3467.56	0.18178
3457.92	0.1806
3448.27	0.17973
3438.63	0.17854
3428.99	0.17776
3419.34	0.17729
3409.7	0.17572
3400.06	0.17462
3390.42	0.17347
3380.77	0.17226
3371.13	0.1713
3361.49	0.17113
3351.84	0.17139
3342.2	0.17508
3332.56	0.17766
3322.92	0.17564
3313.27	0.17114
3303.63	0.1681
3293.99	0.16781
3284.35	0.17239
3274.7	0.1715
3265.06	0.16565
3255.42	0.16117
3245.77	0.15811
3236.13	0.15631
3226.49	0.15428
3216.85	0.15258
3207.2	0.15086
3197.56	0.1498
3187.92	0.14842
3178.27	0.14664
3168.63	0.14536
3158.99	0.14411
3149.35	0.14263
3139.7	0.14102
3130.06	0.13921
3120.42	0.13831
3110.77	0.13689
3101.13	0.13533
3091.49	0.13399
3081.85	0.13286
3072.2	0.13166
3062.56	0.13009
3052.92	0.12841
3043.27	0.12743
3033.63	0.12647
3023.99	0.12557
3014.35	0.12461
3004.7	0.12342
2995.06	0.12269
2985.42	0.1219
2975.77	0.12077
2966.13	0.11971
2956.49	0.11848
2946.85	0.11639
2937.2	0.11486
2927.56	0.11407
2917.92	0.11307
2908.28	0.11109
2898.63	0.11004
2888.99	0.1085
2879.35	0.10698
2869.7	0.10496
2860.06	0.10279
2850.42	0.1014
2840.78	0.09892
2831.13	0.09723
2821.49	0.09585
2811.85	0.09475
2802.2	0.09368
2792.56	0.09263
2782.92	0.09136
2773.28	0.09033
2763.63	0.08925
2753.99	0.08795
2744.35	0.08655
2734.7	0.08512
2725.06	0.08375
2715.42	0.08224
2705.78	0.08095
2696.13	0.079
2686.49	0.07748
2676.85	0.0758
2667.2	0.07418
2657.56	0.07231
2647.92	0.0705
2638.28	0.06884
2628.63	0.06724
2618.99	0.06551
2609.35	0.06398
2599.7	0.06241
2590.06	0.06088
2580.42	0.05947
2570.78	0.05834
2561.13	0.05656
2551.49	0.05526
2541.85	0.05395
2532.21	0.05291
2522.56	0.05167
2512.92	0.05037
2503.28	0.04933
2493.63	0.04793
2483.99	0.04704
2474.35	0.04589
2464.71	0.04493
2455.06	0.04374
2445.42	0.0432
2435.78	0.04195
2426.13	0.04106
2416.49	0.04049
2406.85	0.03935
2397.21	0.03861
2387.56	0.03812
2377.92	0.03655
2368.28	0.03544
2358.63	0.03292
2348.99	0.03472
2339.35	0.03318
2329.71	0.03259
2320.06	0.0328
2310.42	0.03245
2300.78	0.03204
2291.13	0.03158
2281.49	0.03101
2271.85	0.03054
2262.21	0.03022
2252.56	0.02973
2242.92	0.02926
2233.28	0.02883
2223.63	0.02849
2213.99	0.02816
2204.35	0.02825
2194.71	0.02768
2185.06	0.02744
2175.42	0.027
2165.78	0.02641
2156.14	0.02646
2146.49	0.02684
2136.85	0.0267
2127.21	0.02672
2117.56	0.02663
2107.92	0.0267
2098.28	0.02656
2088.64	0.02628
2078.99	0.02622
2069.35	0.02602
2059.71	0.02533
2050.06	0.02534
2040.42	0.0252
2030.78	0.02493
2021.14	0.02467
2011.49	0.0247
2001.85	0.0246
1992.21	0.02493
1982.56	0.02415
1972.92	0.02396
1963.28	0.02362
1953.64	0.0235
1943.99	0.02337
1934.35	0.02326
1924.71	0.02275
1915.06	0.02263
1905.42	0.02249
1895.78	0.02252
1886.14	0.02282
1876.49	0.0231
1866.85	0.02378
1857.21	0.02337
1847.56	0.02378
1837.92	0.02339
1828.28	0.02301
1818.64	0.02238
1808.99	0.02209
1799.35	0.02146
1789.71	0.02075
1780.06	0.01972
1770.42	0.01918
1760.78	0.01809
1751.14	0.01743
1741.49	0.01669
1731.85	0.01624
1722.21	0.01504
1712.57	0.01485
1702.92	0.01468
1693.28	0.0139
1683.64	0.01398
1673.99	0.01362
1664.35	0.01295
1654.71	0.01204
1645.07	0.01279
1635.42	0.01274
1625.78	0.01143
1616.14	0.009
1606.49	0.00652
1596.85	0.00477
1587.21	0.00275
1577.57	0.00142
1567.92	0.00024
1558.28	-0.00126
1548.64	-0.00347
1538.99	-0.00494
1529.35	-0.00661
1519.71	-0.00827
1510.07	-0.01018
1500.42	-0.01097
1490.78	-0.0107
1481.14	-0.00639
1471.49	-0.00275
1461.85	-0.00752
1452.21	-0.00931
1442.57	0.0003
1432.92	0.00452
1423.28	-0.0116
1413.64	-0.01663
1403.99	-0.0139
1394.35	-0.0125
1384.71	-0.02137
1375.07	-0.02484
1365.42	-0.02703
1355.78	-0.02855
1346.14	-0.0299
1336.5	-0.03092
1326.85	-0.03189
1317.21	-0.03267
1307.57	-0.03382
1297.92	-0.0347
1288.28	-0.03508
1278.64	-0.03568
1269	-0.03556
1259.35	-0.03556
1249.71	-0.03502
1240.07	-0.0339
1230.42	-0.0325
1220.78	-0.03021
1211.14	-0.02728
1201.5	-0.02289
1191.85	-0.01668
1182.21	-0.00923
1172.57	-0.00181
1162.92	0.00923
1153.28	0.02999
1143.64	0.06113
1134	0.09546
1124.35	0.14086
1114.71	0.17967
1105.07	0.23599
1095.42	0.31726
1085.78	0.38401
1076.14	0.3972
1066.5	0.41375
1056.85	0.42872
1047.21	0.37999
1037.57	0.37801
1027.92	0.44013
1018.28	0.48902
1008.64	0.53284
998.996	0.59923
989.354	0.67153
979.711	0.71211
970.068	0.73571
960.425	0.76111
950.782	0.77752
941.139	0.76475
931.497	0.73352
921.854	0.6512
912.211	0.56849
902.568	0.48969
892.925	0.35028
883.283	0.18987
873.64	0.09152
863.997	0.04057
854.354	0.0127
844.711	-0.00465
835.068	-0.01538
825.426	-0.02097
815.783	-0.02244
806.14	-0.0222
796.497	-0.02318
786.854	-0.02483
777.211	-0.02555
767.569	-0.02588
757.926	-0.02302
748.283	-0.01448
738.64	-0.00047
728.997	0.01687
719.355	0.03071
709.712	0.04048
700.069	0.04944
690.426	0.04873
680.783	0.04562
671.14	0.05165
661.498	0.06001
651.855	0.07207
642.212	0.06121
632.569	0.04542
622.926	0.03799
613.283	0.03251
603.641	0.02916
593.998	0.03237
584.355	0.05324
574.712	0.11566
565.069	0.16626
555.427	0.11289
545.784	0.09558
536.141	0.11192
526.498	0.11473
516.855	0.11465
507.212	0.13749
497.57	0.1923
487.927	0.25663
478.284	0.32722
468.641	0.40134
458.998	0.46003
449.356	0.47225
439.713	0.44492
430.07	0.40393
