Measurement: Infrared, Infrared Data Processed
Mineral: Tetrahedrite-(Zn)
Rruff sample: R040164
Ideal chemistry: Cu^1+^_6_(Cu^1+^_4_Zn^2+^_2_)Sb^3+^_4_S^2-^_13_
Locality: Sunshine mine, Kellog, Idaho, USA
Source: University of Arizona Mineral Museum
Description: A fragment of massive ore
Measured chemistry: (Cu_0.75_Fe_0.11_Ag_0.08_Zn_0.05_)_12_(Sb_0.97_As_0.06_)_4_S_13_
x	intensity
399.193	0
408.835	0.22132
418.477	0.238712
428.12	0.247405
437.762	0.262651
447.404	0.274041
457.047	0.27781
466.689	0.282879
476.331	0.279576
485.974	0.278402
495.616	0.281371
505.258	0.285053
514.901	0.28839
524.543	0.289094
534.185	0.290652
543.828	0.292275
553.47	0.297481
563.112	0.300487
572.755	0.305845
582.397	0.31297
592.039	0.32015
601.682	0.31932
611.324	0.319463
620.966	0.321572
630.609	0.319768
640.251	0.317551
649.893	0.319884
659.536	0.323223
669.178	0.324403
678.82	0.325026
688.463	0.32384
698.105	0.327308
707.747	0.328061
717.39	0.332065
727.032	0.334345
736.674	0.337968
746.317	0.339251
755.959	0.344722
765.601	0.350058
775.244	0.355396
784.886	0.355096
794.528	0.357891
804.171	0.351804
813.813	0.34737
823.455	0.346651
833.098	0.348872
842.74	0.351876
852.382	0.355712
862.025	0.359192
871.667	0.356059
881.309	0.355685
890.952	0.358372
900.594	0.361415
910.236	0.365944
919.879	0.369248
929.521	0.373431
939.163	0.378699
948.806	0.383405
958.448	0.389036
968.09	0.394339
977.733	0.399765
987.375	0.404524
997.017	0.409938
1006.66	0.416911
1016.3	0.42356
1025.94	0.426089
1035.59	0.432597
1045.23	0.439792
1054.87	0.446724
1064.51	0.451798
1074.16	0.454678
1083.8	0.454352
1093.44	0.452548
1103.08	0.448788
1112.72	0.442059
1122.37	0.432215
1132.01	0.423104
1141.65	0.416253
1151.3	0.410271
1160.94	0.406578
1170.58	0.401252
1180.22	0.396338
1189.86	0.392402
1199.51	0.387975
1209.15	0.382192
1218.79	0.374962
1228.43	0.370538
1238.08	0.369646
1247.72	0.371781
1257.36	0.375336
1267	0.378621
1276.64	0.382533
1286.29	0.386248
1295.93	0.389104
1305.57	0.392466
1315.21	0.39529
1324.86	0.397364
1334.5	0.400311
1344.14	0.403047
1353.78	0.406282
1363.43	0.408591
1373.07	0.411136
1382.71	0.413496
1392.35	0.416475
1401.99	0.419611
1411.64	0.421756
1421.28	0.423125
1430.92	0.423505
1440.57	0.424289
1450.21	0.424802
1459.85	0.424604
1469.49	0.425224
1479.13	0.426261
1488.78	0.427077
1498.42	0.427264
1508.06	0.427851
1517.7	0.429152
1527.35	0.430178
1536.99	0.431104
1546.63	0.431958
1556.27	0.433608
1565.91	0.435171
1575.56	0.437065
1585.2	0.438873
1594.84	0.440892
1604.48	0.442636
1614.13	0.444306
1623.77	0.445145
1633.41	0.445671
1643.05	0.446406
1652.7	0.446669
1662.34	0.446891
1671.98	0.447192
1681.62	0.446902
1691.27	0.447536
1700.91	0.447802
1710.55	0.449632
1720.19	0.450796
1729.84	0.452323
1739.48	0.452892
1749.12	0.453166
1758.76	0.454242
1768.4	0.455539
1778.05	0.456876
1787.69	0.457412
1797.33	0.458959
1806.97	0.459529
1816.62	0.460303
1826.26	0.46144
1835.9	0.462187
1845.54	0.4618
1855.18	0.464692
1864.83	0.46567
1874.47	0.466983
1884.11	0.466806
1893.75	0.467526
1903.4	0.468453
1913.04	0.467795
1922.68	0.467897
1932.32	0.46662
1941.97	0.466167
1951.61	0.466693
1961.25	0.464167
1970.89	0.458886
1980.54	0.462379
1990.18	0.466186
1999.82	0.46802
2009.46	0.468282
2019.11	0.468516
2028.75	0.46332
2038.39	0.467936
2048.03	0.47425
2057.67	0.478701
2067.32	0.480243
2076.96	0.484985
2086.6	0.486318
2096.24	0.48657
2105.89	0.489814
2115.53	0.49078
2125.17	0.488098
2134.81	0.483649
2144.45	0.482209
2154.1	0.474703
2163.74	0.483599
2173.38	0.483304
2183.02	0.488818
2192.67	0.490451
2202.31	0.49276
2211.95	0.496093
2221.59	0.497277
2231.24	0.499145
2240.88	0.502566
2250.52	0.504355
2260.16	0.506614
2269.8	0.509594
2279.45	0.511386
2289.09	0.514625
2298.73	0.516501
2308.38	0.518283
2318.02	0.52108
2327.66	0.52155
2337.3	0.522997
2346.94	0.523807
2356.59	0.524961
2366.23	0.524027
2375.87	0.526008
2385.51	0.526082
2395.16	0.527896
2404.8	0.528246
2414.44	0.528126
2424.08	0.529009
2433.72	0.531528
2443.37	0.532028
2453.01	0.5325
2462.65	0.534321
2472.29	0.534631
2481.94	0.537467
2491.58	0.536645
2501.22	0.540124
2510.86	0.54011
2520.51	0.54135
2530.15	0.54204
2539.79	0.543411
2549.43	0.543542
2559.07	0.545273
2568.72	0.547921
2578.36	0.54839
2588	0.550866
2597.64	0.552967
2607.29	0.55341
2616.93	0.554364
2626.57	0.557474
2636.21	0.558506
2645.86	0.560961
2655.5	0.561304
2665.14	0.563298
2674.78	0.563623
2684.43	0.564896
2694.07	0.565767
2703.71	0.567131
2713.35	0.568478
2722.99	0.570849
2732.64	0.571398
2742.28	0.572153
2751.92	0.573503
2761.56	0.575393
2771.21	0.576914
2780.85	0.576588
2790.49	0.579287
2800.13	0.58008
2809.78	0.581801
2819.42	0.582943
2829.06	0.584772
2838.7	0.584755
2848.34	0.585478
2857.99	0.58582
2867.63	0.588267
2877.27	0.589381
2886.91	0.592075
2896.56	0.592601
2906.2	0.591778
2915.84	0.592825
2925.48	0.592916
2935.13	0.593064
2944.77	0.595453
2954.41	0.597868
2964.05	0.598284
2973.7	0.602348
2983.34	0.603364
2992.98	0.605078
3002.62	0.606086
3012.26	0.608293
3021.91	0.608978
3031.55	0.612371
3041.19	0.612611
3050.83	0.613484
3060.48	0.615165
3070.12	0.616564
3079.76	0.617624
3089.4	0.619685
3099.05	0.62052
3108.69	0.621234
3118.33	0.621631
3127.97	0.623613
3137.61	0.624366
3147.26	0.622748
3156.9	0.626815
3166.54	0.627228
3176.18	0.628259
3185.83	0.627357
3195.47	0.628632
3205.11	0.628561
3214.75	0.628025
3224.4	0.62924
3234.04	0.630336
3243.68	0.630415
3253.32	0.628966
3262.97	0.631564
3272.61	0.630627
3282.25	0.63227
3291.89	0.629962
3301.53	0.632698
3311.18	0.632682
3320.82	0.632539
3330.46	0.633647
3340.1	0.630588
3349.75	0.633119
3359.39	0.632079
3369.03	0.632735
3378.67	0.631899
3388.32	0.632012
3397.96	0.630408
3407.6	0.630731
3417.24	0.627868
3426.89	0.628284
3436.53	0.627301
3446.17	0.627911
3455.81	0.627841
3465.45	0.629685
3475.1	0.62849
3484.74	0.628353
3494.38	0.626559
3504.02	0.628678
3513.67	0.628329
3523.31	0.628609
3532.95	0.628625
3542.59	0.629656
3552.24	0.629799
3561.88	0.627115
3571.52	0.627923
3581.16	0.629373
3590.8	0.632211
3600.45	0.631732
3610.09	0.635438
3619.73	0.637867
3629.37	0.638636
3639.02	0.637477
3648.66	0.638845
3658.3	0.63894
3667.94	0.641304
3677.59	0.647243
3687.23	0.648077
3696.87	0.646196
3706.51	0.653666
3716.16	0.65103
3725.8	0.651492
3735.44	0.654444
3745.08	0.656236
3754.72	0.655878
3764.37	0.657488
3774.01	0.662378
3783.65	0.661359
3793.29	0.660692
3802.94	0.664344
3812.58	0.665284
3822.22	0.667627
3831.86	0.666382
3841.51	0.666729
3851.15	0.668428
3860.79	0.670989
3870.43	0.676293
3880.07	0.674623
3889.72	0.676547
3899.36	0.676818
3909	0.676719
3918.64	0.678638
3928.29	0.677177
3937.93	0.681603
3947.57	0.680357
3957.21	0.682194
3966.86	0.685815
3976.5	0.68384
3986.14	0.686176
3995.78	0.686395
