Measurement: Infrared, Infrared Data Processed
Mineral: Tilasite
Rruff sample: R050246
Ideal chemistry: CaMgAs^5+^O_4_F
Locality: Langban, Filipstad, Varmland, Sweden
Source: Marcus Origlieri
Description: Reddish-brown granular
Measured chemistry: Ca_1.02_Mg_0.98_(As_1.00_O_4_)F_1.00_
x	intensity
395.336	0.0694651
404.978	0.0736248
414.62	0.0773041
424.263	0.0711941
433.905	0.0729357
443.547	0.0815167
453.19	0.0724521
462.832	0.053754
472.474	0.0379683
482.117	0.0283737
491.759	0.0204914
501.401	0.0161243
511.044	0.0200404
520.686	0.0320689
530.328	0.0251814
539.971	0.0144807
549.613	0.0121666
559.255	0.012881
568.898	0.017612
578.54	0.0271586
588.182	0.0380272
597.825	0.0373473
607.467	0.0247316
617.109	0.0116249
626.752	0.00732409
636.394	0.00672404
646.036	0.00600761
655.679	0.00581409
665.321	0.00653295
674.963	0.00669752
684.606	0.00708616
694.248	0.00748459
703.89	0.00792867
713.533	0.0085784
723.175	0.0101727
732.817	0.012145
742.46	0.0149245
752.102	0.0183845
761.744	0.0216675
771.387	0.0273177
781.029	0.0361467
790.671	0.049334
800.314	0.0668122
809.956	0.0898498
819.598	0.10843
829.241	0.108141
838.883	0.0914586
848.525	0.0783942
858.168	0.0894292
867.81	0.0720483
877.452	0.0464999
887.095	0.0262152
896.737	0.0131396
906.379	0.00661367
916.022	0.00429324
925.664	0.00353202
935.306	0.00304139
944.949	0.00265123
954.591	0.00255354
964.233	0.00251303
973.876	0.00226027
983.518	0.00221588
993.16	0.00234741
1002.8	0.00247374
1012.45	0.00278844
1022.09	0.00362503
1031.73	0.00267284
1041.37	0.00318025
1051.01	0.00177664
1060.66	0.00123862
1070.3	0.00113717
1079.94	0.00101045
1089.58	0.000529592
1099.23	0.000251194
1108.87	0.000195577
1118.51	0.000177183
1128.15	0.000223398
1137.8	0.000226024
1147.44	7.23559e-05
1157.08	-5.09902e-06
1166.72	4.41496e-05
1176.37	0.000160341
1186.01	-7.13588e-05
1195.65	-1.62822e-05
1205.29	5.79906e-05
1214.93	1.20366e-05
1224.58	-1.90703e-06
1234.22	-0.000177413
1243.86	0.000282803
1253.5	9.95237e-05
1263.15	9.99543e-05
1272.79	0.00014543
1282.43	0.000448812
1292.07	0.000387364
1301.71	0.000312398
1311.36	0.000456022
1321	0.000485615
1330.64	0.000322693
1340.28	0.000325831
1349.93	0.000353954
1359.57	0.000405481
1369.21	0.000359056
1378.85	0.000377859
1388.5	0.0006285
1398.14	0.000575085
1407.78	0.000494362
1417.42	0.000997827
1427.07	0.000828457
1436.71	0.00103615
1446.35	0.000845795
1455.99	0.00121235
1465.63	0.0010878
1475.28	0.000944605
1484.92	0.000908947
1494.56	0.000785133
1504.2	0.000668452
1513.85	0.000609926
1523.49	0.000591327
1533.13	0.000457245
1542.77	0.000678735
1552.42	0.000635299
1562.06	0.000691934
1571.7	0.000540615
1581.34	0.000759327
1590.98	0.000607922
1600.63	0.000555236
1610.27	0.000580527
1619.91	0.000714337
1629.55	0.000570079
1639.2	0.00048415
1648.84	0.000654635
1658.48	0.000689485
1668.12	0.000879242
1677.77	0.000701898
1687.41	0.000659036
1697.05	0.000637307
1706.69	0.000590387
1716.34	0.000658665
1725.98	0.000286684
1735.62	0.000396278
1745.26	0.00029197
1754.9	0.000155676
1764.55	0.000350412
1774.19	0.000361913
1783.83	0.000222269
1793.47	0.000566705
1803.12	0.00021499
1812.76	0.000395921
1822.4	0.000378876
1832.04	0.000560547
1841.69	0.000516112
1851.33	0.000648892
1860.97	0.000251926
1870.61	0.00091734
1880.26	0.000604787
1889.9	0.00052461
1899.54	0.0001624
1909.18	0.000338568
1918.82	0.00041438
1928.47	0.000126464
1938.11	0.000499759
1947.75	-0.000662857
1957.39	0.000138415
1967.04	0.00035763
1976.68	1.69635e-05
1986.32	-0.000356248
1995.96	-0.000131201
2005.61	-0.00161061
2015.25	9.08832e-05
2024.89	-0.000530611
2034.53	-0.00134856
2044.17	-0.00196638
2053.82	-0.000206376
2063.46	-0.000930521
2073.1	-0.00190565
2082.74	-0.000783266
2092.39	-0.000510258
2102.03	-0.000635532
2111.67	-0.0012791
2121.31	2.46713e-05
2130.96	0.000227454
2140.6	-0.000465233
2150.24	-0.001657
2159.88	-0.00306793
2169.53	-0.00180761
2179.17	-0.00156735
2188.81	-0.00149905
2198.45	-0.000828018
2208.09	-0.00108812
2217.74	-0.000840347
2227.38	-0.000526951
2237.02	0.000260127
2246.66	-0.00106125
2256.31	-0.00100038
2265.95	-0.000747213
2275.59	-0.00025919
2285.23	-0.000656267
2294.88	-0.00018354
2304.52	7.88045e-05
2314.16	4.72344e-05
2323.8	-0.00018185
2333.45	0.000602474
2343.09	0.000943559
2352.73	0.000620324
2362.37	0.00183688
2372.01	0.000842877
2381.66	0.000146001
2391.3	0.000127177
2400.94	0.00013509
2410.58	5.23177e-05
2420.23	-0.000227159
2429.87	0.000142354
2439.51	-8.6243e-05
2449.15	-0.00070918
2458.8	0.000184301
2468.44	3.91778e-05
2478.08	-0.000211163
2487.72	-0.000307743
2497.36	-0.000251359
2507.01	-0.000277575
2516.65	-0.000207447
2526.29	-0.000439202
2535.93	-0.000739598
2545.58	-0.00103199
2555.22	-0.000569986
2564.86	-0.00111087
2574.5	-0.000643346
2584.14	-0.000849061
2593.79	-0.00117697
2603.43	-0.000688938
2613.07	-0.000467704
2622.72	-0.000705332
2632.36	-0.000760572
2642	-0.000857135
2651.64	-0.000739452
2661.28	-0.000668733
2670.93	-0.000520343
2680.57	-0.000317659
2690.21	-0.000407288
2699.85	-0.000748159
2709.5	-0.000639305
2719.14	-0.000709023
2728.78	-0.000735121
2738.42	-0.000724389
2748.07	-0.000376087
2757.71	-0.000624013
2767.35	-0.00063151
2776.99	-0.000229735
2786.63	7.50686e-05
2796.28	-9.83924e-05
2805.92	-0.000319966
2815.56	-0.000541714
2825.2	-7.4418e-05
2834.85	-0.000451344
2844.49	-0.000434036
2854.13	-8.79459e-05
2863.77	-0.000173159
2873.41	9.50211e-05
2883.06	-0.000582581
2892.7	-0.000874873
2902.34	-0.000255873
2911.99	-0.000433244
2921.63	-0.000281866
2931.27	4.17643e-05
2940.91	-8.01941e-05
2950.55	-0.000250935
2960.2	-0.000649834
2969.84	-0.000500084
2979.48	-0.000317254
2989.12	-0.000832872
2998.77	-0.000621356
3008.41	-0.00113497
3018.05	-0.000668931
3027.69	-0.000776947
3037.34	-0.000561849
3046.98	-0.000718328
3056.62	-0.00114921
3066.26	-0.000895181
3075.9	-0.00177646
3085.55	-0.00137856
3095.19	-0.000900449
3104.83	-0.00148923
3114.47	-0.00181409
3124.12	-0.00112608
3133.76	-0.00136245
3143.4	-0.0010683
3153.04	-0.00196248
3162.68	-0.00105077
3172.33	-0.00156559
3181.97	-0.00100893
3191.61	-0.00248577
3201.26	-0.00197448
3210.9	-0.000916142
3220.54	-0.00184155
3230.18	-0.00188811
3239.82	-0.00181088
3249.47	-0.0014931
3259.11	-0.00232791
3268.75	-0.00235664
3278.39	-0.00255217
3288.04	-0.00218639
3297.68	-0.0025902
3307.32	-0.00295203
3316.96	-0.00297873
3326.61	-0.00296286
3336.25	-0.00261972
3345.89	-0.00279781
3355.53	-0.00292083
3365.17	-0.00273448
3374.82	-0.00270101
3384.46	-0.00309967
3394.1	-0.00351447
3403.74	-0.00365822
3413.39	-0.00338718
3423.03	-0.00422078
3432.67	-0.00405652
3442.31	-0.00333031
3451.95	-0.00353603
3461.6	-0.00322182
3471.24	-0.00353674
3480.88	-0.00460376
3490.53	-0.00418487
3500.17	-0.0037954
3509.81	-0.00402845
3519.45	-0.00424304
3529.09	-0.0039686
3538.74	-0.00557252
3548.38	-0.00427076
3558.02	-0.00499582
3567.66	-0.00435515
3577.31	-0.00478883
3586.95	-0.00388262
3596.59	-0.00392171
3606.23	-0.00466399
3615.88	-0.00501902
3625.52	-0.00507216
3635.16	-0.00524016
3644.8	-0.00423723
3654.44	-0.00492457
3664.09	-0.00584672
3673.73	-0.0046974
3683.37	-0.00546936
3693.01	-0.00548477
3702.66	-0.0057474
3712.3	-0.00574839
3721.94	-0.00593904
3731.58	-0.00492522
3741.22	-0.00512678
3750.87	-0.00547434
3760.51	-0.00606824
3770.15	-0.00602406
3779.8	-0.0061867
3789.44	-0.00629579
3799.08	-0.00610815
3808.72	-0.0055194
3818.36	-0.00693447
3828.01	-0.00625778
3837.65	-0.00516295
3847.29	-0.00664702
3856.93	-0.00564518
3866.58	-0.0068813
3876.22	-0.00665414
3885.86	-0.00531022
3895.5	-0.00650081
3905.14	-0.00626966
3914.79	-0.00627726
3924.43	-0.00704215
3934.07	-0.00696975
3943.71	-0.00673655
3953.36	-0.00716541
3963	-0.00705591
3972.64	-0.00767272
3982.28	-0.0081743
3991.93	-0.00776843
