Measurement: Infrared, Infrared Data Processed
Mineral: Tilleyite
Rruff sample: R050227
Ideal chemistry: Ca_5_Si_2_O_7_(CO_3_)_2_
Locality: Crestmore Quarry, Riverside County, California, USA
Source: Marcus Origlieri
Description: Aggregate of colorless subhedral crystals
x	intensity
50.1401	0.00312214
52.0686	0.00948754
53.9971	0.0095585
55.9255	0.0139711
57.854	0.0299696
59.7825	0.0417595
61.7109	0.0272663
63.6394	0.0265714
65.5679	0.027965
67.4963	0.02523
69.4248	0.0249611
71.3533	0.0246591
73.2817	0.02682
75.2102	0.0287087
77.1387	0.0317463
79.0671	0.0359155
80.9956	0.0366701
82.9241	0.0358837
84.8525	0.0366167
86.781	0.0354192
88.7095	0.0339279
90.6379	0.0349735
92.5664	0.0368001
94.4948	0.0393431
96.4233	0.0413598
98.3518	0.0435234
100.28	0.0421835
102.209	0.0428175
104.137	0.0449315
106.066	0.0462208
107.994	0.0457404
109.923	0.0453133
111.851	0.0475617
113.779	0.0488181
115.708	0.048065
117.636	0.0471792
119.565	0.0471343
121.493	0.047433
123.422	0.0482308
125.35	0.0480073
127.279	0.0458538
129.207	0.0445328
131.136	0.0450237
133.064	0.0466834
134.993	0.0491027
136.921	0.0522807
138.85	0.0547383
140.778	0.0562755
142.707	0.0574652
144.635	0.0574991
146.563	0.0572549
148.492	0.057273
150.42	0.0568619
152.349	0.0575295
154.277	0.0591363
156.206	0.0609595
158.134	0.0624875
160.063	0.0640968
161.991	0.0659758
163.92	0.0677846
165.848	0.0684416
167.777	0.0688138
169.705	0.0700329
171.633	0.0710406
173.562	0.0715347
175.49	0.0728495
177.419	0.0742862
179.347	0.0749596
181.276	0.0760335
183.204	0.0781507
185.133	0.0804006
187.061	0.0819464
188.99	0.0831268
190.918	0.0846194
192.847	0.0855259
194.775	0.0864488
196.704	0.088138
198.632	0.0900041
200.56	0.0918425
202.489	0.0929756
204.417	0.0925833
206.346	0.0920765
208.274	0.0901229
210.203	0.088633
212.131	0.0889776
214.06	0.0906925
215.988	0.0934578
217.917	0.0950672
219.845	0.0953266
221.774	0.0954705
223.702	0.0955174
225.631	0.0953362
227.559	0.0950405
229.488	0.09503
231.416	0.0953447
233.344	0.0964216
235.273	0.0972176
237.201	0.0984839
239.13	0.0998825
241.058	0.100614
242.987	0.100599
244.915	0.100146
246.844	0.0993678
248.772	0.0987234
250.701	0.098292
252.629	0.0982034
254.558	0.098359
256.486	0.0985762
258.414	0.0989604
260.343	0.0994128
262.271	0.0996019
264.2	0.0990673
266.128	0.0984177
268.057	0.0984396
269.985	0.0985988
271.914	0.0988903
273.842	0.0994982
275.771	0.100344
277.699	0.102071
279.628	0.10458
281.556	0.106553
283.485	0.108692
285.413	0.110921
287.341	0.11256
289.27	0.113071
291.198	0.112199
293.127	0.110626
295.055	0.109812
296.984	0.109318
298.912	0.109554
300.841	0.110053
302.769	0.110128
304.698	0.110226
306.626	0.109957
308.555	0.109127
310.483	0.107679
312.411	0.105671
314.34	0.10359
316.269	0.101175
318.197	0.0991647
320.125	0.0978755
322.054	0.0964955
323.982	0.0951783
325.911	0.0945855
327.839	0.0938083
329.768	0.0925975
331.696	0.0911757
333.625	0.0894507
335.553	0.0879309
337.482	0.086565
339.41	0.0854972
341.339	0.0841656
343.267	0.0816441
345.195	0.078848
347.124	0.076501
349.052	0.0737242
350.981	0.0709854
352.909	0.068556
354.838	0.0662933
356.766	0.0647336
358.695	0.0636036
360.623	0.0619819
362.552	0.0600608
364.48	0.0585364
366.409	0.0575827
368.337	0.0564127
370.265	0.0553793
372.194	0.0543346
374.122	0.0533345
376.051	0.0524993
377.979	0.0515902
379.908	0.050863
381.836	0.0507007
383.765	0.0505259
385.693	0.0500508
387.622	0.0493351
389.55	0.0490862
391.479	0.0493716
393.407	0.0501734
395.336	0.0515085
397.264	0.0529067
399.192	0.0529743
401.121	0.0516713
403.049	0.0495891
404.978	0.0478615
406.906	0.0467912
408.835	0.0463088
410.763	0.0465078
412.692	0.0476575
414.62	0.0491043
416.549	0.0506249
418.477	0.0516723
420.406	0.0521064
422.334	0.0521122
424.262	0.052411
426.191	0.053297
428.12	0.0548811
430.048	0.0569372
431.976	0.059382
433.905	0.0620112
435.833	0.0648462
437.762	0.0674951
439.69	0.0701243
441.619	0.0726014
443.547	0.0752149
445.476	0.0779241
447.404	0.0815145
449.333	0.0855114
451.261	0.0894083
453.19	0.0928212
455.118	0.0952106
457.046	0.0968834
458.975	0.0980791
460.903	0.0990164
462.832	0.100173
464.76	0.101007
466.689	0.101135
468.617	0.101095
470.546	0.101344
472.474	0.101601
474.403	0.101742
476.331	0.101727
478.26	0.101842
480.188	0.102475
482.116	0.103734
484.045	0.104791
485.974	0.105386
487.902	0.105505
489.83	0.104832
491.759	0.10329
493.687	0.100809
495.616	0.0980495
497.544	0.0952496
499.473	0.0921079
501.401	0.0891774
503.33	0.0877374
505.258	0.0880958
507.187	0.0881576
509.115	0.0865378
511.043	0.0838081
512.972	0.0805718
514.9	0.0771362
516.829	0.0741374
518.757	0.0711747
520.686	0.0685677
522.614	0.0667916
524.543	0.0657247
526.471	0.0657445
528.4	0.0666284
530.328	0.0682472
532.257	0.0711536
534.185	0.0751176
536.114	0.0796429
538.042	0.0835574
539.971	0.0861917
541.899	0.0879002
543.827	0.0880575
545.756	0.0859722
547.684	0.0839967
549.613	0.0826162
551.541	0.0819182
553.47	0.0809868
555.398	0.0784385
557.327	0.0740513
559.255	0.0684551
561.184	0.0625919
563.112	0.0574578
565.041	0.0530085
566.969	0.0497528
568.898	0.0471995
570.826	0.0453819
572.755	0.0436999
574.683	0.0426766
576.611	0.0420752
578.54	0.0415157
580.468	0.0409491
582.397	0.0404427
584.325	0.0397959
586.254	0.0394236
588.182	0.0392018
590.111	0.0390561
592.039	0.0385141
593.968	0.0380989
595.896	0.0378418
597.824	0.0376943
599.753	0.0374285
601.682	0.0367104
603.61	0.0362545
605.538	0.0359855
607.467	0.0357107
609.395	0.0356744
611.324	0.0357152
613.252	0.0363568
615.181	0.0372531
617.109	0.0377708
619.038	0.037732
620.966	0.0380635
622.894	0.0389126
624.823	0.0410918
626.751	0.0433936
628.68	0.0458578
630.608	0.0480517
632.537	0.0496011
634.465	0.0510332
636.394	0.0527111
638.322	0.0546034
640.251	0.0565258
642.179	0.05919
644.108	0.0622372
646.036	0.0641171
647.965	0.064431
649.893	0.0634068
651.822	0.0621024
653.75	0.0617059
655.678	0.0615945
657.607	0.0604673
659.535	0.0585585
661.464	0.0568262
663.392	0.0553522
665.321	0.0540163
667.249	0.0529082
669.178	0.0520357
671.106	0.0514818
673.035	0.0513434
674.963	0.0509698
676.892	0.0508057
678.82	0.0512924
680.749	0.0514956
682.677	0.0511586
684.606	0.0500934
686.534	0.0503619
688.462	0.0508261
690.391	0.0516973
692.319	0.0540178
694.248	0.0568489
696.176	0.061809
698.105	0.0653394
700.033	0.0624159
