Measurement: Infrared, Infrared Data Processed
Mineral: Tinzenite
Rruff sample: R050251
Ideal chemistry: Ca_2_Mn^2+^_4_Al_4_[B_2_Si_8_O_30_](OH)_2_
Locality: Tinzen, Sursass Valley, Switzerland
Source: Marcus Origlieri
Description: Aggregate of yellowish orange prismatic crystals associated with quartz
Measured chemistry: (Ca_2.96_Mn_2.84_Fe^2+^_0.14_Mg_0.06_)_Î£=6_Al_4.00_[B_2.00_Si_8.00_O_30_](OH)_2_; H_2_O assumed ideal from stoichiometry; B_2_O_3_ estimated by difference
x	intensity
50.1401	0.00966048
52.0686	0.0068872
53.9971	0.0179383
55.9255	0.0180465
57.854	0.0175168
59.7825	0.0168155
61.7109	0.0163378
63.6394	0.018475
65.5679	0.0205104
67.4963	0.0202382
69.4248	0.0200274
71.3533	0.0201162
73.2817	0.0203982
75.2102	0.020467
77.1387	0.0215201
79.0671	0.023251
80.9956	0.0261722
82.9241	0.0267405
84.8525	0.0277942
86.781	0.0292387
88.7095	0.0305544
90.6379	0.0301807
92.5664	0.0310926
94.4948	0.0330767
96.4233	0.0340245
98.3518	0.0353907
100.28	0.036328
102.209	0.0366022
104.137	0.0368607
106.066	0.0370503
107.994	0.0371576
109.923	0.0362886
111.851	0.0354423
113.779	0.0356945
115.708	0.0362539
117.636	0.037088
119.565	0.0386195
121.493	0.0406352
123.422	0.0430927
125.35	0.045433
127.279	0.0478829
129.207	0.0495952
131.136	0.049722
133.064	0.0483315
134.993	0.0485109
136.921	0.0496485
138.85	0.0501617
140.778	0.0493914
142.707	0.0499799
144.635	0.050333
146.563	0.051039
148.492	0.0536567
150.42	0.0568495
152.349	0.0596048
154.277	0.0601674
156.206	0.0586927
158.134	0.056534
160.063	0.0552496
161.991	0.0555825
163.92	0.0566011
165.848	0.056445
167.777	0.0549837
169.705	0.0536406
171.633	0.0520763
173.562	0.0519332
175.49	0.0518675
177.419	0.0516096
179.347	0.0519124
181.276	0.053283
183.204	0.0539147
185.133	0.0543997
187.061	0.0553574
188.99	0.0569414
190.918	0.0591468
192.847	0.062576
194.775	0.0656605
196.704	0.0668866
198.632	0.065387
200.56	0.062706
202.489	0.0616797
204.417	0.0618317
206.346	0.0632706
208.274	0.0656124
210.203	0.0670195
212.131	0.0676759
214.06	0.0683828
215.988	0.0686264
217.917	0.0673075
219.845	0.0648202
221.774	0.0625031
223.702	0.0616021
225.631	0.0615558
227.559	0.0618934
229.488	0.0627335
231.416	0.0635801
233.344	0.0635431
235.273	0.0636691
237.201	0.0641966
239.13	0.0654751
241.058	0.0674282
242.987	0.0699763
244.915	0.0727369
246.844	0.0757586
248.772	0.0773416
250.701	0.0776378
252.629	0.0780579
254.558	0.0787557
256.486	0.0786769
258.414	0.0781782
260.343	0.0772938
262.271	0.0754659
264.2	0.0725975
266.128	0.0698859
268.057	0.0688879
269.985	0.0699882
271.914	0.0719161
273.842	0.0735184
275.771	0.0738125
277.699	0.072378
279.628	0.0698317
281.556	0.0683334
283.485	0.067274
285.413	0.066043
287.341	0.0654895
289.27	0.0662494
291.198	0.0677876
293.127	0.070219
295.055	0.0727686
296.984	0.0753362
298.912	0.0775707
300.841	0.0789489
302.769	0.079535
304.698	0.0785442
306.626	0.0770847
308.555	0.0763652
310.483	0.0762483
312.411	0.0764054
314.34	0.0767329
316.269	0.0771891
318.197	0.0781799
320.125	0.0799528
322.054	0.082332
323.982	0.0846812
325.911	0.0860714
327.839	0.0863267
329.768	0.0858647
331.696	0.0868227
333.625	0.0894421
335.553	0.0922768
337.482	0.0943738
339.41	0.0954282
341.339	0.0952675
343.267	0.0936079
345.195	0.0919013
347.124	0.0917829
349.052	0.0937709
350.981	0.0967646
352.909	0.0999035
354.838	0.102366
356.766	0.104211
358.695	0.105573
360.623	0.106302
362.552	0.107492
364.48	0.10859
366.409	0.109556
368.337	0.110064
370.265	0.109939
372.194	0.109808
374.122	0.110152
376.051	0.110522
377.979	0.110924
379.908	0.111817
381.836	0.112272
383.765	0.111466
385.693	0.109416
387.622	0.107783
389.55	0.10855
391.479	0.110605
393.407	0.112475
395.336	0.113376
397.264	0.112956
399.192	0.111986
401.121	0.112172
403.049	0.113703
404.978	0.115871
406.906	0.117882
408.835	0.119202
410.763	0.119383
412.692	0.119492
414.62	0.120843
416.549	0.123122
418.477	0.125107
420.406	0.12669
422.334	0.128234
424.262	0.129096
426.191	0.128704
428.12	0.127969
430.048	0.127493
431.976	0.127169
433.905	0.127216
435.833	0.128123
437.762	0.129651
439.69	0.131273
441.619	0.132705
443.547	0.132871
445.476	0.132018
447.404	0.131257
449.333	0.130314
451.261	0.129389
453.19	0.128364
455.118	0.128001
457.046	0.127387
458.975	0.125549
460.903	0.122532
462.832	0.119698
464.76	0.116762
466.689	0.113996
468.617	0.112313
470.546	0.111742
472.474	0.112001
474.403	0.113253
476.331	0.113761
478.26	0.112733
480.188	0.110319
482.116	0.107416
484.045	0.104334
485.974	0.1008
487.902	0.0969342
489.83	0.0934887
491.759	0.0908315
493.687	0.0894475
495.616	0.0900222
497.544	0.0923375
499.473	0.095527
501.401	0.0991141
503.33	0.102159
505.258	0.104941
507.187	0.106873
509.115	0.107965
511.043	0.108804
512.972	0.109848
514.9	0.110816
516.829	0.111279
518.757	0.111014
520.686	0.110032
522.614	0.108186
524.543	0.107412
526.471	0.108465
528.4	0.110805
530.328	0.113262
532.257	0.115596
534.185	0.118526
536.114	0.121584
538.042	0.123907
539.971	0.125848
541.899	0.127014
543.827	0.127782
545.756	0.128858
547.684	0.129612
549.613	0.129406
551.541	0.128363
553.47	0.126222
555.398	0.123477
557.327	0.120338
559.255	0.117575
561.184	0.115366
563.112	0.113732
565.041	0.112792
566.969	0.112051
568.898	0.111384
570.826	0.110808
572.755	0.110571
574.683	0.1101
576.611	0.109551
578.54	0.108915
580.468	0.108019
582.397	0.10669
584.325	0.105368
586.254	0.104296
588.182	0.103298
590.111	0.102528
592.039	0.101787
593.968	0.101698
595.896	0.101677
597.824	0.101558
599.753	0.101141
601.682	0.100394
603.61	0.0986891
605.538	0.095375
607.467	0.0908514
609.395	0.0861899
611.324	0.0813241
613.252	0.0774765
615.181	0.0731864
617.109	0.0694402
619.038	0.0666449
620.966	0.0652802
622.894	0.0653073
624.823	0.0652881
626.751	0.0655254
628.68	0.0663825
630.608	0.0667823
632.537	0.0673011
634.465	0.0672541
636.394	0.0665659
638.322	0.0658543
640.251	0.0648958
642.179	0.0636499
644.108	0.0626266
646.036	0.0617833
647.965	0.0608133
649.893	0.0604585
651.822	0.0611334
653.75	0.0620242
655.678	0.0632468
657.607	0.0650991
659.535	0.0680165
661.464	0.0717568
663.392	0.0757106
665.321	0.0797849
667.249	0.0831033
669.178	0.0846835
671.106	0.0845172
673.035	0.0827687
674.963	0.0797467
676.892	0.0766451
678.82	0.0747135
680.749	0.0730463
682.677	0.0710122
684.606	0.0694301
686.534	0.068962
688.462	0.0690731
690.391	0.0696009
692.319	0.070029
694.248	0.0695538
696.176	0.0691133
698.105	0.0694707
700.033	0.0688224
