Measurement: Infrared, Infrared Data Processed
Mineral: Topaz
Rruff sample: R050200
Ideal chemistry: Al_2_SiO_4_F_2_
Locality: Jos Plateau, Nigeria
Source: Marcus Origlieri
Description: Colorless water-worn single crystal
Measured chemistry: Al_2.000_Si_1.000_O_4.000_F_1.488_(OH)_0.512_
x	intensity
374.123	0.251041
383.765	0.245901
393.407	0.247439
403.05	0.206682
412.692	0.268205
422.334	0.264974
431.976	0.279031
441.619	0.270218
451.261	0.254238
460.904	0.2017
470.546	0.178046
480.188	0.220922
489.83	0.158436
499.473	0.16486
509.115	0.165291
518.758	0.165151
528.4	0.153087
538.042	0.11865
547.684	0.112706
557.327	0.162281
566.969	0.138864
576.611	0.135177
586.254	0.19751
595.896	0.255746
605.538	0.312242
615.181	0.28755
624.823	0.220432
634.466	0.167098
644.108	0.128988
653.75	0.0981691
663.393	0.0713458
673.035	0.0476321
682.677	0.0369401
692.319	0.0278625
701.962	0.0348797
711.604	0.03668
721.246	0.0237363
730.889	0.0220041
740.531	0.0232508
750.173	0.0263348
759.816	0.0328751
769.458	0.0466988
779.101	0.0538464
788.743	0.0773466
798.385	0.119832
808.028	0.177384
817.67	0.23734
827.312	0.293152
836.955	0.340389
846.597	0.365481
856.239	0.371278
865.881	0.354453
875.524	0.315227
885.166	0.264356
894.808	0.230845
904.451	0.203731
914.093	0.182988
923.736	0.16099
933.378	0.146219
943.02	0.13147
952.663	0.10674
962.305	0.0881152
971.947	0.0711217
981.59	0.0586908
991.232	0.0594519
1000.87	0.0715815
1010.52	0.0595332
1020.16	0.0433337
1029.8	0.0329321
1039.44	0.0253429
1049.09	0.019551
1058.73	0.0159932
1068.37	0.0140462
1078.01	0.0118201
1087.65	0.010347
1097.3	0.0100737
1106.94	0.00950341
1116.58	0.00906374
1126.22	0.00808406
1135.87	0.00768136
1145.51	0.0079777
1155.15	0.0127138
1164.79	0.0273414
1174.44	0.00920975
1184.08	0.00469888
1193.72	0.00316139
1203.36	0.00235068
1213.01	0.00169821
1222.65	0.00134966
1232.29	0.00113204
1241.93	0.000688548
1251.58	0.000461118
1261.22	0.000267167
1270.86	0.0002505
1280.5	0.000257027
1290.14	0.000155355
1299.79	0.000195814
1309.43	0.000330752
1319.07	0.000411316
1328.71	0.000263297
1338.36	0.000538625
1348	0.000594354
1357.64	0.000645652
1367.28	0.000688195
1376.92	0.00107017
1386.57	0.0012215
1396.21	0.00147838
1405.85	0.0020197
1415.49	0.00282975
1425.14	0.00429368
1434.78	0.00521478
1444.42	0.00558111
1454.06	0.00616178
1463.71	0.00620302
1473.35	0.0060648
1482.99	0.00549588
1492.63	0.00464201
1502.28	0.0037575
1511.92	0.0029511
1521.56	0.00247635
1531.2	0.00186883
1540.85	0.0021621
1550.49	0.00198017
1560.13	0.00206649
1569.77	0.00204073
1579.41	0.0018855
1589.06	0.00200623
1598.7	0.00195772
1608.34	0.00181176
1617.98	0.002
1627.63	0.00166245
1637.27	0.00173449
1646.91	0.00188414
1656.55	0.00124673
1666.19	0.00102822
1675.84	0.000946758
1685.48	0.000875039
1695.12	0.000530303
1704.77	5.8661e-05
1714.41	0.000232684
1724.05	-0.000112258
1733.69	-0.000278036
1743.33	-0.00134935
1752.98	-0.00107085
1762.62	-0.000949402
1772.26	-0.00045243
1781.9	-0.000377862
1791.55	0.000195613
1801.19	0.000303914
1810.83	0.000544624
1820.47	0.000365045
1830.12	0.000302831
1839.76	0.00022263
1849.4	0.00058286
1859.04	0.000397092
1868.68	0.000464738
1878.33	-0.000513496
1887.97	0.000172298
1897.61	-0.00046052
1907.25	0.000213304
1916.9	-0.000577297
1926.54	-0.000698352
1936.18	-0.000581585
1945.82	-0.000773752
1955.46	-0.00022018
1965.11	-0.000339237
1974.75	0.00097067
1984.39	0.00180014
1994.04	-0.000689527
2003.68	-0.00184126
2013.32	-0.0006104
2022.96	0.000508882
2032.6	0.00084135
2042.25	0.00146331
2051.89	0.00216606
2061.53	0.00197622
2071.17	0.00178329
2080.82	0.00164436
2090.46	0.00156783
2100.1	0.0022985
2109.74	0.0025054
2119.39	0.00164319
2129.03	-0.000159553
2138.67	0.000887358
2148.31	0.00107413
2157.95	0.000851784
2167.6	0.00475705
2177.24	0.00359739
2186.88	0.00384848
2196.52	0.00218794
2206.17	0.00318033
2215.81	0.00234725
2225.45	0.00139747
2235.09	0.00295692
2244.74	0.0035639
2254.38	0.00286937
2264.02	0.00284478
2273.66	0.00359199
2283.3	0.00395227
2292.95	0.00398403
2302.59	0.00332644
2312.23	0.00288332
2321.87	0.0038638
2331.52	0.00222436
2341.16	0.00250961
2350.8	0.00220413
2360.44	0.00280059
2370.09	0.00247388
2379.73	0.00201769
2389.37	0.00146229
2399.01	0.00241499
2408.66	0.00252645
2418.3	0.00253989
2427.94	0.00267008
2437.58	0.00284881
2447.22	0.00265996
2456.87	0.00284603
2466.51	0.00273507
2476.15	0.00241092
2485.79	0.00266669
2495.44	0.00229263
2505.08	0.00268413
2514.72	0.00230935
2524.36	0.0016206
2534.01	0.00257379
2543.65	0.00290494
2553.29	0.00222771
2562.93	0.00229854
2572.57	0.00290479
2582.22	0.00261983
2591.86	0.0029234
2601.5	0.00320001
2611.14	0.00341931
2620.79	0.00297682
2630.43	0.00338418
2640.07	0.00377063
2649.71	0.00337952
2659.36	0.00270702
2669	0.00261717
2678.64	0.00255535
2688.28	0.00243018
2697.93	0.00310364
2707.57	0.00279156
2717.21	0.00305609
2726.85	0.00319156
2736.49	0.00331174
2746.14	0.00308801
2755.78	0.00305397
2765.42	0.00315706
2775.06	0.00365748
2784.71	0.00345113
2794.35	0.00358294
2803.99	0.00359463
2813.63	0.00366466
2823.28	0.00376212
2832.92	0.00376931
2842.56	0.00415129
2852.2	0.00369152
2861.84	0.00399276
2871.49	0.00421163
2881.13	0.00399762
2890.77	0.00468282
2900.41	0.0043815
2910.06	0.004631
2919.7	0.00480956
2929.34	0.00429339
2938.98	0.00430478
2948.62	0.00452958
2958.27	0.00398353
2967.91	0.00404169
2977.55	0.00345125
2987.2	0.00395604
2996.84	0.00422729
3006.48	0.0046817
3016.12	0.00416557
3025.76	0.00460427
3035.41	0.00434294
3045.05	0.00541679
3054.69	0.00478348
3064.33	0.00457656
3073.98	0.00562412
3083.62	0.0049506
3093.26	0.00581658
3102.9	0.00550567
3112.55	0.00571044
3122.19	0.00628093
3131.83	0.00628844
3141.47	0.00678672
3151.11	0.00640302
3160.76	0.00652289
3170.4	0.00676426
3180.04	0.00689326
3189.68	0.00721809
3199.33	0.00650059
3208.97	0.0071164
3218.61	0.00677982
3228.25	0.00730003
3237.9	0.00786462
3247.54	0.00724545
3257.18	0.00760515
3266.82	0.00733953
3276.47	0.00830371
3286.11	0.00734819
3295.75	0.00754606
3305.39	0.00767463
3315.03	0.00880439
3324.68	0.00825601
3334.32	0.00758091
3343.96	0.00836834
3353.6	0.00825972
3363.25	0.00848265
3372.89	0.00744311
3382.53	0.00817166
3392.17	0.00765889
3401.82	0.00850123
3411.46	0.00702896
3421.1	0.00900511
3430.74	0.00855872
3440.39	0.00840418
3450.03	0.00876015
3459.67	0.00822807
3469.31	0.0084599
3478.95	0.00756957
3488.6	0.00850163
3498.24	0.00762078
3507.88	0.00788995
3517.52	0.00763427
3527.17	0.00740425
3536.81	0.0061174
3546.45	0.0072724
3556.09	0.0067707
3565.74	0.00696757
3575.38	0.00748704
3585.02	0.00614311
3594.66	0.00597863
3604.3	0.00700588
3613.95	0.00539029
3623.59	0.00613038
3633.23	0.0074786
3642.87	0.0117377
3652.52	0.0123341
3662.16	0.00216771
3671.8	0.00186867
3681.44	0.00173831
3691.09	0.00294956
3700.73	0.003018
3710.37	0.00310128
3720.01	0.00276079
3729.66	0.0035639
3739.3	0.00337705
3748.94	0.00529775
3758.58	0.00389221
3768.22	0.00560123
3777.87	0.00301152
3787.51	0.00337814
3797.15	0.0045693
3806.79	0.00404199
3816.44	0.00450339
3826.08	0.00468152
3835.72	0.00232806
3845.36	0.00342628
3855.01	0.00229903
3864.65	0.00353439
3874.29	0.00265824
3883.93	0.0025701
3893.57	0.00334724
3903.22	0.00362002
3912.86	0.00297295
3922.5	0.00292729
3932.14	0.00425866
3941.79	0.00354336
3951.43	0.00304569
3961.07	0.0048647
3970.71	0.00362438
3980.36	0.003961
3990	0.00446031
3999.64	0.00337863
