Measurement: Infrared, Infrared Data Processed
Mineral: Topaz
Rruff sample: R050176
Ideal chemistry: Al_2_SiO_4_F_2_
Locality: Jos Plateau, Nigeria
Source: Marcus Origlieri
Description: Colorless prismatic crystal
Measured chemistry: Al_2.000_Si_1.000_O_4.000_(F_1.438_(OH)_0.562_)
x	intensity
374.123	0.104893
383.765	0.100867
393.407	0.115598
403.05	0.0892556
412.692	0.102691
422.334	0.11798
431.976	0.1258
441.619	0.138865
451.261	0.147938
460.904	0.132147
470.546	0.0988654
480.188	0.125196
489.83	0.0940956
499.473	0.0901551
509.115	0.089448
518.758	0.0840286
528.4	0.0843089
538.042	0.0645422
547.684	0.0603243
557.327	0.0745478
566.969	0.0663169
576.611	0.0605727
586.254	0.0854207
595.896	0.103008
605.538	0.137018
615.181	0.151505
624.823	0.136346
634.466	0.110429
644.108	0.0876919
653.75	0.0663096
663.393	0.046339
673.035	0.02941
682.677	0.0205219
692.319	0.0134333
701.962	0.0163075
711.604	0.0171457
721.246	0.0100357
730.889	0.0092573
740.531	0.0100361
750.173	0.0123896
759.816	0.0167944
769.458	0.0255852
779.101	0.0312371
788.743	0.0428856
798.385	0.0585562
808.028	0.0759051
817.67	0.0933439
827.312	0.111174
836.955	0.128842
846.597	0.143412
856.239	0.152768
865.881	0.157146
875.524	0.15481
885.166	0.140514
894.808	0.125495
904.451	0.114235
914.093	0.103948
923.736	0.0940209
933.378	0.0853112
943.02	0.0787681
952.663	0.0645398
962.305	0.0515731
971.947	0.0407814
981.59	0.033001
991.232	0.0331443
1000.87	0.0378704
1010.52	0.0302641
1020.16	0.0215823
1029.8	0.0159242
1039.44	0.0116306
1049.09	0.00806117
1058.73	0.00571372
1068.37	0.00420258
1078.01	0.00322255
1087.65	0.00264354
1097.3	0.00205615
1106.94	0.00161604
1116.58	0.00140475
1126.22	0.0009393
1135.87	0.000540511
1145.51	0.000730742
1155.15	0.00302558
1164.79	0.0102742
1174.44	0.00154782
1184.08	-0.000693593
1193.72	-0.00161689
1203.36	-0.00187655
1213.01	-0.00211121
1222.65	-0.00239362
1232.29	-0.00260145
1241.93	-0.00286768
1251.58	-0.00290238
1261.22	-0.00304509
1270.86	-0.00311363
1280.5	-0.00315943
1290.14	-0.00324278
1299.79	-0.0031186
1309.43	-0.00312616
1319.07	-0.00318236
1328.71	-0.00305335
1338.36	-0.00310706
1348	-0.00312984
1357.64	-0.00321069
1367.28	-0.00318178
1376.92	-0.00326035
1386.57	-0.00306274
1396.21	-0.00288052
1405.85	-0.00281439
1415.49	-0.00301379
1425.14	-0.00280941
1434.78	-0.00266821
1444.42	-0.00276523
1454.06	-0.00298596
1463.71	-0.00311432
1473.35	-0.00289911
1482.99	-0.00291403
1492.63	-0.00300785
1502.28	-0.00287654
1511.92	-0.00301552
1521.56	-0.00296793
1531.2	-0.00296775
1540.85	-0.00319439
1550.49	-0.00321486
1560.13	-0.00317799
1569.77	-0.00329772
1579.41	-0.00321317
1589.06	-0.00348226
1598.7	-0.00322006
1608.34	-0.00331279
1617.98	-0.00316237
1627.63	-0.0033166
1637.27	-0.00335134
1646.91	-0.00310599
1656.55	-0.00347469
1666.19	-0.00345768
1675.84	-0.0036012
1685.48	-0.0035822
1695.12	-0.00335584
1704.77	-0.00356567
1714.41	-0.00372901
1724.05	-0.00401842
1733.69	-0.00446178
1743.33	-0.00454044
1752.98	-0.00431202
1762.62	-0.00431827
1772.26	-0.00414714
1781.9	-0.00389583
1791.55	-0.00379866
1801.19	-0.00386305
1810.83	-0.003729
1820.47	-0.00366125
1830.12	-0.00370687
1839.76	-0.0042625
1849.4	-0.00436769
1859.04	-0.00380343
1868.68	-0.00437011
1878.33	-0.00449481
1887.97	-0.0048453
1897.61	-0.00469129
1907.25	-0.00441131
1916.9	-0.00504082
1926.54	-0.00507204
1936.18	-0.00460988
1945.82	-0.00551924
1955.46	-0.00536165
1965.11	-0.00492378
1974.75	-0.00571714
1984.39	-0.00476169
1994.04	-0.00516828
2003.68	-0.00502318
2013.32	-0.00398537
2022.96	-0.0048584
2032.6	-0.00326313
2042.25	-0.00438427
2051.89	-0.00341158
2061.53	-0.00430215
2071.17	-0.00423524
2080.82	-0.00342416
2090.46	-0.00413
2100.1	-0.00341524
2109.74	-0.00431496
2119.39	-0.00451997
2129.03	-0.00407739
2138.67	-0.0039515
2148.31	-0.00384167
2157.95	-0.0044002
2167.6	-0.00487651
2177.24	-0.00385548
2186.88	-0.00453673
2196.52	-0.00404919
2206.17	-0.00472195
2215.81	-0.004101
2225.45	-0.00478573
2235.09	-0.00492542
2244.74	-0.00428202
2254.38	-0.00391847
2264.02	-0.0049736
2273.66	-0.00386486
2283.3	-0.00349604
2292.95	-0.00425557
2302.59	-0.00399916
2312.23	-0.00438146
2321.87	-0.00408207
2331.52	-0.00457209
2341.16	-0.0049743
2350.8	-0.00427137
2360.44	-0.00473318
2370.09	-0.00492933
2379.73	-0.00477147
2389.37	-0.0045534
2399.01	-0.00510698
2408.66	-0.00455292
2418.3	-0.00514532
2427.94	-0.00476594
2437.58	-0.00522805
2447.22	-0.00520581
2456.87	-0.00509516
2466.51	-0.00530301
2476.15	-0.00559024
2485.79	-0.00586245
2495.44	-0.00606401
2505.08	-0.00578728
2514.72	-0.00598985
2524.36	-0.0063666
2534.01	-0.00671038
2543.65	-0.00599465
2553.29	-0.00634023
2562.93	-0.00553978
2572.57	-0.00590249
2582.22	-0.00517966
2591.86	-0.00555261
2601.5	-0.00544252
2611.14	-0.00531299
2620.79	-0.00513316
2630.43	-0.00526513
2640.07	-0.0050651
2649.71	-0.00482078
2659.36	-0.00531892
2669	-0.00498353
2678.64	-0.00526699
2688.28	-0.00530743
2697.93	-0.00532569
2707.57	-0.00506564
2717.21	-0.0051321
2726.85	-0.0052528
2736.49	-0.00538693
2746.14	-0.00539677
2755.78	-0.00529947
2765.42	-0.0052173
2775.06	-0.00532869
2784.71	-0.00549703
2794.35	-0.00552095
2803.99	-0.00557608
2813.63	-0.00537976
2823.28	-0.00527505
2832.92	-0.00509866
2842.56	-0.00553855
2852.2	-0.00690325
2861.84	-0.00607218
2871.49	-0.00570145
2881.13	-0.00578681
2890.77	-0.00579539
2900.41	-0.00593245
2910.06	-0.00648753
2919.7	-0.00791107
2929.34	-0.00580317
2938.98	-0.0058552
2948.62	-0.00603853
2958.27	-0.00589572
2967.91	-0.00611917
2977.55	-0.00569003
2987.2	-0.00640285
2996.84	-0.0060615
3006.48	-0.00572973
3016.12	-0.00551671
3025.76	-0.00629151
3035.41	-0.00589267
3045.05	-0.00618995
3054.69	-0.00590806
3064.33	-0.0066601
3073.98	-0.00625367
3083.62	-0.00634015
3093.26	-0.00631748
3102.9	-0.00608241
3112.55	-0.00642841
3122.19	-0.00635591
3131.83	-0.00582105
3141.47	-0.00655106
3151.11	-0.00590656
3160.76	-0.00632483
3170.4	-0.0060137
3180.04	-0.00629574
3189.68	-0.00637315
3199.33	-0.00657729
3208.97	-0.00560207
3218.61	-0.00634919
3228.25	-0.00598146
3237.9	-0.00623628
3247.54	-0.00648731
3257.18	-0.00594089
3266.82	-0.00567672
3276.47	-0.00627682
3286.11	-0.00646843
3295.75	-0.00654862
3305.39	-0.00637341
3315.03	-0.00671479
3324.68	-0.00635634
3334.32	-0.00596391
3343.96	-0.00665829
3353.6	-0.00657651
3363.25	-0.00636202
3372.89	-0.00691636
3382.53	-0.00718844
3392.17	-0.0071915
3401.82	-0.0074792
3411.46	-0.00765773
3421.1	-0.007331
3430.74	-0.00740019
3440.39	-0.00768798
3450.03	-0.00638302
3459.67	-0.00769799
3469.31	-0.00722692
3478.95	-0.00734692
3488.6	-0.00708474
3498.24	-0.0075867
3507.88	-0.00742834
3517.52	-0.00731711
3527.17	-0.00737855
3536.81	-0.00835986
3546.45	-0.00754015
3556.09	-0.00810504
3565.74	-0.00846168
3575.38	-0.00868458
3585.02	-0.00782123
3594.66	-0.00833849
3604.3	-0.00770237
3613.95	-0.00771498
3623.59	-0.0079428
3633.23	-0.00624444
3642.87	-0.00603219
3652.52	-0.00485473
3662.16	-0.00941274
3671.8	-0.00815185
3681.44	-0.00888264
3691.09	-0.00962097
3700.73	-0.00885154
3710.37	-0.00911334
3720.01	-0.00868393
3729.66	-0.00888929
3739.3	-0.00861846
3748.94	-0.00834556
3758.58	-0.00941295
3768.22	-0.00915211
3777.87	-0.00857525
3787.51	-0.0088145
3797.15	-0.00868842
3806.79	-0.00965214
3816.44	-0.0086893
3826.08	-0.00906217
3835.72	-0.0087237
3845.36	-0.00972153
3855.01	-0.0092565
3864.65	-0.00861983
3874.29	-0.00906703
3883.93	-0.00929995
3893.57	-0.0090313
3903.22	-0.0092064
3912.86	-0.00832632
3922.5	-0.00878576
3932.14	-0.00952349
3941.79	-0.00938995
3951.43	-0.0092181
3961.07	-0.00902686
3970.71	-0.00890852
3980.36	-0.00916641
3990	-0.00869324
3999.64	-0.00940146
