Measurement: Infrared, Infrared Data Processed
Mineral: Topaz
Rruff sample: R050405
Ideal chemistry: Al_2_SiO_4_F_2_
Locality: Amelia, Virginia, USA
Source: Gerry Gibbs
Description: Colorless cleavage fragment
Measured chemistry: Al_2.00_Si_1.00_O_4_(F_0.75_(OH)_0.25_)_2_
x	intensity
399.193	0.224756
408.835	0.262776
418.477	0.32291
428.12	0.33149
437.762	0.348772
447.404	0.335027
457.047	0.278012
466.689	0.209953
476.331	0.251722
485.974	0.200524
495.616	0.175082
505.258	0.183389
514.901	0.177024
524.543	0.180624
534.185	0.132828
543.828	0.114498
553.47	0.139225
563.112	0.155118
572.755	0.115021
582.397	0.190656
592.039	0.210991
601.682	0.327676
611.324	0.358586
620.966	0.28681
630.609	0.210514
640.251	0.160943
649.893	0.122284
659.536	0.0905248
669.178	0.0612195
678.82	0.0427971
688.463	0.0300467
698.105	0.0308093
707.747	0.0436094
717.39	0.0260957
727.032	0.021719
736.674	0.0218669
746.317	0.0247944
755.959	0.030251
765.601	0.0429969
775.244	0.0513083
784.886	0.0653887
794.528	0.0942502
804.171	0.136053
813.813	0.191049
823.455	0.253581
833.098	0.319137
842.74	0.374961
852.382	0.402544
862.025	0.410017
871.667	0.379059
881.309	0.321443
890.952	0.267076
900.594	0.238819
910.236	0.209306
919.879	0.187458
929.521	0.164082
939.163	0.152813
948.806	0.124866
958.448	0.102423
968.09	0.0827533
977.733	0.0660506
987.375	0.0596325
997.017	0.070004
1006.66	0.0671505
1016.3	0.0499315
1025.94	0.0365866
1035.59	0.0274139
1045.23	0.0201797
1054.87	0.0157653
1064.51	0.0124398
1074.16	0.0101198
1083.8	0.0088525
1093.44	0.00805275
1103.08	0.00747072
1112.72	0.00669405
1122.37	0.00582478
1132.01	0.00557818
1141.65	0.00524463
1151.3	0.00846851
1160.94	0.0261924
1170.58	0.0156319
1180.22	0.00353053
1189.86	0.00142639
1199.51	0.000671916
1209.15	-0.000140005
1218.79	-0.000755197
1228.43	-0.000879598
1238.08	-0.00152657
1247.72	-0.00160697
1257.36	-0.00162666
1267	-0.00183022
1276.64	-0.00166447
1286.29	-0.00147883
1295.93	-0.00129275
1305.57	-0.00125735
1315.21	-0.00113687
1324.86	-0.00141165
1334.5	-0.002063
1344.14	-0.00207435
1353.78	-0.00401236
1363.43	-0.00549218
1373.07	-0.00479422
1382.71	-0.00440293
1392.35	-0.00353621
1401.99	-0.0032164
1411.64	-0.00340628
1421.28	-0.00291376
1430.92	-0.00318334
1440.57	-0.00383786
1450.21	-0.00441047
1459.85	-0.00535796
1469.49	-0.00478448
1479.13	-0.00185493
1488.78	-0.00141499
1498.42	-0.00155948
1508.06	-0.00114941
1517.7	-0.00148709
1527.35	-0.00155096
1536.99	-0.0020295
1546.63	-0.00247983
1556.27	-0.0021847
1565.91	-0.00275093
1575.56	-0.00244418
1585.2	-0.00280531
1594.84	-0.00295678
1604.48	-0.00337685
1614.13	-0.00368593
1623.77	-0.00410571
1633.41	-0.00332327
1643.05	-0.00346594
1652.7	-0.00330435
1662.34	-0.00318013
1671.98	-0.00297036
1681.62	-0.00303105
1691.27	-0.00306049
1700.91	-0.00280148
1710.55	-0.00415669
1720.19	-0.0040379
1729.84	-0.00565716
1739.48	-0.0100309
1749.12	-0.00860721
1758.76	-0.00341635
1768.4	-0.000906857
1778.05	-0.000404456
1787.69	-0.000107738
1797.33	-0.000256988
1806.97	0.000613392
1816.62	4.23762e-05
1826.26	-0.000559169
1835.9	0.000625099
1845.54	0.000759602
1855.18	-0.000197847
1864.83	-0.00121886
1874.47	-0.000366545
1884.11	0.000347674
1893.75	-0.000790994
1903.4	-0.00146155
1913.04	-0.00113897
1922.68	-0.00204813
1932.32	-0.00315482
1941.97	-0.00308453
1951.61	-0.00192463
1961.25	-0.0045203
1970.89	-0.00322794
1980.54	-0.00406597
1990.18	-0.00333632
1999.82	-0.00434288
2009.46	-0.00498779
2019.11	-0.00443528
2028.75	-0.00295483
2038.39	-0.000505326
2048.03	0.000160502
2057.67	0.00058394
2067.32	-0.000242932
2076.96	-0.00033632
2086.6	0.000287035
2096.24	0.00265288
2105.89	-8.87514e-05
2115.53	-0.00168692
2125.17	0.000240782
2134.81	4.01783e-05
2144.45	-0.00393817
2154.1	-0.00372166
2163.74	0.00565906
2173.38	0.000230758
2183.02	-0.00142113
2192.67	0.00225051
2202.31	0.000955746
2211.95	0.00038742
2221.59	0.00023757
2231.24	0.00355552
2240.88	0.00152472
2250.52	0.00217199
2260.16	0.00200096
2269.8	0.00205614
2279.45	0.0038284
2289.09	0.00442884
2298.73	0.00357218
2308.38	0.00308367
2318.02	0.00324811
2327.66	0.0016624
2337.3	0.00245353
2346.94	0.0015331
2356.59	0.0020555
2366.23	0.00181938
2375.87	0.00207721
2385.51	0.00262743
2395.16	0.00171776
2404.8	0.00263486
2414.44	0.00133726
2424.08	0.00226021
2433.72	0.000890389
2443.37	0.00332175
2453.01	0.00261663
2462.65	0.00386409
2472.29	0.00128105
2481.94	0.00200861
2491.58	0.00242483
2501.22	0.0024112
2510.86	0.0014763
2520.51	0.00148682
2530.15	0.0023933
2539.79	0.00230029
2549.43	0.000879375
2559.07	0.00378615
2568.72	0.0028514
2578.36	0.00191667
2588	0.00290548
2597.64	0.00160894
2607.29	0.00100637
2616.93	0.0030588
2626.57	0.00248111
2636.21	0.00372447
2645.86	0.00270353
2655.5	0.00128762
2665.14	0.00205832
2674.78	-3.86405e-05
2684.43	0.00222657
2694.07	0.00240952
2703.71	0.0024433
2713.35	0.00216218
2722.99	0.00384494
2732.64	0.00242177
2742.28	0.00149294
2751.92	0.00257386
2761.56	0.0034239
2771.21	0.00215891
2780.85	0.00453087
2790.49	0.00166191
2800.13	0.00375489
2809.78	0.00450491
2819.42	0.00240311
2829.06	0.00165564
2838.7	0.00241856
2848.34	-0.000579733
2857.99	0.00334683
2867.63	0.00280311
2877.27	0.00438623
2886.91	0.00242716
2896.56	0.00285356
2906.2	0.000583971
2915.84	-0.000287104
2925.48	0.00338833
2935.13	0.0077681
2944.77	0.0045332
2954.41	0.00327685
2964.05	0.00800218
2973.7	0.00589127
2983.34	0.00568703
2992.98	0.0071309
3002.62	0.00697967
3012.26	0.00547597
3021.91	0.0101193
3031.55	0.00437929
3041.19	0.00749038
3050.83	0.00436704
3060.48	0.00478343
3070.12	0.00260424
3079.76	0.00520968
3089.4	0.00663994
3099.05	0.00579945
3108.69	0.00246288
3118.33	0.00250095
3127.97	0.00579524
3137.61	0.00463802
3147.26	0.0065069
3156.9	0.00618895
3166.54	0.00255929
3176.18	0.00321756
3185.83	0.00238717
3195.47	0.00326873
3205.11	0.00172509
3214.75	0.00321724
3224.4	0.00607028
3234.04	0.00489196
3243.68	0.00561326
3253.32	0.00498366
3262.97	0.00409006
3272.61	0.00457147
3282.25	0.0029723
3291.89	0.00749421
3301.53	0.00497101
3311.18	0.0046871
3320.82	0.00604086
3330.46	0.00773955
3340.1	0.00627899
3349.75	0.0053067
3359.39	0.00519551
3369.03	0.00399196
3378.67	0.0065729
3388.32	0.00868599
3397.96	0.00457354
3407.6	0.00424826
3417.24	0.00791811
3426.89	0.00850174
3436.53	0.00508674
3446.17	0.00350331
3455.81	0.003541
3465.45	0.00316283
3475.1	0.00534153
3484.74	0.00425503
3494.38	0.00683917
3504.02	0.00936677
3513.67	0.0061007
3523.31	0.00542126
3532.95	0.00937025
3542.59	0.00352016
3552.24	0.00624885
3561.88	0.00388642
3571.52	0.00440396
3581.16	0.00729058
3590.8	0.00736018
3600.45	0.00754069
3610.09	0.00739923
3619.73	0.00524672
3629.37	0.00800564
3639.02	0.00813211
3648.66	0.0234018
3658.3	0.00602862
3667.94	0.000620551
3677.59	0.00329551
3687.23	0.000842725
3696.87	-0.000522589
3706.51	0.00718552
3716.16	0.00372841
3725.8	0.00299089
3735.44	0.00563178
3745.08	0.0066631
3754.72	0.000430264
3764.37	0.0032198
3774.01	0.00497119
3783.65	0.00361896
3793.29	0.0088726
3802.94	0.00545981
3812.58	0.00298386
3822.22	0.00700649
3831.86	0.00574428
3841.51	0.00544699
3851.15	0.00398497
3860.79	0.00364453
3870.43	0.00204968
3880.07	0.00234494
3889.72	0.0059875
3899.36	0.00464716
3909	0.00445969
3918.64	0.00733907
3928.29	0.006784
3937.93	0.00902227
3947.57	0.00498952
3957.21	0.00703446
3966.86	0.00589719
3976.5	0.00266197
3986.14	0.00510211
3995.78	0.00485302
