Measurement: Infrared, Infrared Data Processed
Mineral: Tourmaline
Rruff sample: R080010
Locality: east Africa
Source: www.multicolour.com
Description: Green gemmy fragments, consistent with dravite
x	intensity
399.193	0.201517
408.835	0.213016
418.477	0.220534
428.12	0.213336
437.762	0.2138
447.404	0.22505
457.047	0.224455
466.689	0.225539
476.331	0.230252
485.974	0.235785
495.616	0.22953
505.258	0.217561
514.901	0.194181
524.543	0.170349
534.185	0.154102
543.828	0.144852
553.47	0.143018
563.112	0.14567
572.755	0.143269
582.397	0.133461
592.039	0.120435
601.682	0.112806
611.324	0.11005
620.966	0.0966885
630.609	0.0837317
640.251	0.0753903
649.893	0.079953
659.536	0.0794779
669.178	0.0802838
678.82	0.0816277
688.463	0.0839426
698.105	0.0947371
707.747	0.106357
717.39	0.102266
727.032	0.0832892
736.674	0.0710079
746.317	0.0680161
755.959	0.0774702
765.601	0.0796277
775.244	0.085108
784.886	0.0792817
794.528	0.0567441
804.171	0.0363079
813.813	0.0371541
823.455	0.038303
833.098	0.035915
842.74	0.0333857
852.382	0.0332469
862.025	0.0349257
871.667	0.0370665
881.309	0.0423412
890.952	0.0540765
900.594	0.0702575
910.236	0.0865187
919.879	0.103663
929.521	0.12597
939.163	0.155623
948.806	0.187712
958.448	0.213306
968.09	0.227095
977.733	0.229581
987.375	0.220537
997.017	0.197162
1006.66	0.173529
1016.3	0.16592
1025.94	0.172208
1035.59	0.172752
1045.23	0.162417
1054.87	0.139004
1064.51	0.120864
1074.16	0.11399
1083.8	0.109754
1093.44	0.102757
1103.08	0.0864999
1112.72	0.063737
1122.37	0.0421969
1132.01	0.0255472
1141.65	0.0156303
1151.3	0.010936
1160.94	0.00927344
1170.58	0.00847663
1180.22	0.0088215
1189.86	0.0100315
1199.51	0.0129908
1209.15	0.0196779
1218.79	0.0349384
1228.43	0.060173
1238.08	0.08908
1247.72	0.107482
1257.36	0.1116
1267	0.108792
1276.64	0.102465
1286.29	0.0950768
1295.93	0.0887172
1305.57	0.0804337
1315.21	0.0728393
1324.86	0.0675134
1334.5	0.064501
1344.14	0.0677548
1353.78	0.0696488
1363.43	0.064712
1373.07	0.0561477
1382.71	0.045829
1392.35	0.0362226
1401.99	0.0275956
1411.64	0.0210706
1421.28	0.0169506
1430.92	0.0134782
1440.57	0.00980537
1450.21	0.0062495
1459.85	0.0040555
1469.49	0.00284327
1479.13	0.0019812
1488.78	0.00178707
1498.42	0.00127309
1508.06	0.00117436
1517.7	0.000899041
1527.35	0.000639295
1536.99	0.000588669
1546.63	9.24135e-05
1556.27	0.000583758
1565.91	0.000230727
1575.56	0.000919781
1585.2	0.000278591
1594.84	0.00039985
1604.48	0.000722116
1614.13	0.000914077
1623.77	0.00111307
1633.41	0.00121092
1643.05	0.00141638
1652.7	0.00232468
1662.34	0.00128899
1671.98	0.00128496
1681.62	0.00109039
1691.27	0.000972805
1700.91	0.0016363
1710.55	0.000956275
1720.19	0.00180783
1729.84	0.001536
1739.48	0.000563591
1749.12	1.26142e-05
1758.76	-5.70689e-05
1768.4	-2.67463e-05
1778.05	-8.61549e-05
1787.69	5.61901e-05
1797.33	-4.10887e-05
1806.97	-3.68007e-05
1816.62	-0.000509369
1826.26	-7.48207e-05
1835.9	-0.000685634
1845.54	-0.00080814
1855.18	-0.000849218
1864.83	-0.0010911
1874.47	-0.00130506
1884.11	-0.00179883
1893.75	-0.00119366
1903.4	-0.00110629
1913.04	-0.00197728
1922.68	-0.00165696
1932.32	-0.0017451
1941.97	-0.00232803
1951.61	-0.00244224
1961.25	-0.00223999
1970.89	-0.00325446
1980.54	-0.000659388
1990.18	-0.00109866
1999.82	-8.52044e-05
2009.46	-0.000193761
2019.11	0.00143344
2028.75	-0.000104346
2038.39	-2.49497e-05
2048.03	6.22037e-05
2057.67	-0.000299407
2067.32	-0.000556392
2076.96	-0.000508256
2086.6	-0.000399195
2096.24	-0.000317994
2105.89	0.000104315
2115.53	0.00101708
2125.17	1.65538e-05
2134.81	-0.000464515
2144.45	0.000516901
2154.1	-0.00132005
2163.74	0.00351238
2173.38	0.00188409
2183.02	0.00338565
2192.67	0.00276274
2202.31	0.00378977
2211.95	0.00293617
2221.59	0.00441778
2231.24	0.00448376
2240.88	0.00578266
2250.52	0.00510847
2260.16	0.00437312
2269.8	0.0044167
2279.45	0.00502082
2289.09	0.00444264
2298.73	0.00371844
2308.38	0.00380881
2318.02	0.00434942
2327.66	0.0036066
2337.3	0.00383214
2346.94	0.00311084
2356.59	0.00390782
2366.23	0.00343039
2375.87	0.00276807
2385.51	0.00263974
2395.16	0.00245886
2404.8	0.00221844
2414.44	0.0023965
2424.08	0.00262409
2433.72	0.00195336
2443.37	0.00185824
2453.01	0.00203996
2462.65	0.00115693
2472.29	0.000824531
2481.94	0.000384571
2491.58	0.00034543
2501.22	0.000215116
2510.86	0.000897367
2520.51	0.000799688
2530.15	0.000647706
2539.79	0.000840489
2549.43	0.00140538
2559.07	0.00155681
2568.72	0.00171918
2578.36	0.00195205
2588	0.00273287
2597.64	0.00247762
2607.29	0.00296544
2616.93	0.00301555
2626.57	0.00264823
2636.21	0.00326378
2645.86	0.00349239
2655.5	0.00340268
2665.14	0.00314561
2674.78	0.00304053
2684.43	0.00289369
2694.07	0.00304409
2703.71	0.00308619
2713.35	0.00305469
2722.99	0.00295162
2732.64	0.00315683
2742.28	0.00321103
2751.92	0.00312428
2761.56	0.00321546
2771.21	0.00355528
2780.85	0.00376048
2790.49	0.00358765
2800.13	0.0036176
2809.78	0.00381922
2819.42	0.00425632
2829.06	0.00431111
2838.7	0.00488325
2848.34	0.00468911
2857.99	0.00511433
2867.63	0.00509657
2877.27	0.0049392
2886.91	0.00519469
2896.56	0.00535207
2906.2	0.00638128
2915.84	0.00602779
2925.48	0.00702729
2935.13	0.00622685
2944.77	0.00549993
2954.41	0.00595677
2964.05	0.00564187
2973.7	0.00572002
2983.34	0.00517803
2992.98	0.00514869
3002.62	0.00534258
3012.26	0.00523168
3021.91	0.00551698
3031.55	0.00521055
3041.19	0.00561283
3050.83	0.00522639
3060.48	0.00561558
3070.12	0.00617309
3079.76	0.00613797
3089.4	0.00663144
3099.05	0.0068723
3108.69	0.00669527
3118.33	0.00720013
3127.97	0.00711533
3137.61	0.00754879
3147.26	0.00699187
3156.9	0.00723834
3166.54	0.00800438
3176.18	0.00705437
3185.83	0.00793591
3195.47	0.00803272
3205.11	0.00895837
3214.75	0.0082494
3224.4	0.00836135
3234.04	0.00838005
3243.68	0.00844673
3253.32	0.0084166
3262.97	0.00932445
3272.61	0.00875952
3282.25	0.00854063
3291.89	0.00858202
3301.53	0.00864092
3311.18	0.00921852
3320.82	0.00870095
3330.46	0.00962991
3340.1	0.00962521
3349.75	0.00930308
3359.39	0.00930037
3369.03	0.00998336
3378.67	0.00991633
3388.32	0.00961302
3397.96	0.00919177
3407.6	0.0100041
3417.24	0.00965979
3426.89	0.0107091
3436.53	0.0101211
3446.17	0.0116402
3455.81	0.0124513
3465.45	0.012876
3475.1	0.0142165
3484.74	0.0151783
3494.38	0.0168837
3504.02	0.0177388
3513.67	0.0198252
3523.31	0.0205282
3532.95	0.0211848
3542.59	0.0213977
3552.24	0.0218516
3561.88	0.0198542
3571.52	0.0186842
3581.16	0.0157833
3590.8	0.0123604
3600.45	0.00810648
3610.09	0.00489549
3619.73	0.00395385
3629.37	0.00520625
3639.02	0.00405954
3648.66	0.0051877
3658.3	0.00392601
3667.94	0.00386107
3677.59	0.00357812
3687.23	0.00462887
3696.87	0.00355209
3706.51	0.00391994
3716.16	0.00458273
3725.8	0.00353663
3735.44	0.00607667
3745.08	0.00583054
3754.72	0.00375534
3764.37	0.0025458
3774.01	0.00388129
3783.65	0.00399704
3793.29	0.0036806
3802.94	0.00453508
3812.58	0.00344407
3822.22	0.00507935
3831.86	0.0041534
3841.51	0.00442528
3851.15	0.0045702
3860.79	0.00366178
3870.43	0.00443285
3880.07	0.00402051
3889.72	0.00393867
3899.36	0.00416888
3909	0.0042374
3918.64	0.00310388
3928.29	0.00358107
3937.93	0.00303314
3947.57	0.00335332
3957.21	0.00272414
3966.86	0.0033828
3976.5	0.00292174
3986.14	0.00268871
3995.78	0.00404486
