Measurement: Infrared, Infrared Data Processed
Mineral: Tremolite
Rruff sample: R040045
Ideal chemistry: [box]Ca_2_Mg_5_Si_8_O_22_(OH)_2_
Locality: Gouverneur, New York, USA
Source: University of Arizona Mineral Museum
Description: Group of colorless acicular single crystals
Measured chemistry: Ca_2.01_(Mg_0.99_Fe_0.01_)_5_(Si_0.99_Fe_0.01_)_8_O_22_(OH)_2_
x	intensity
399.193	0
408.835	0.229315
418.477	0.264057
428.12	0.227398
437.762	0.331086
447.404	0.308333
457.047	0.273579
466.689	0.24863
476.331	0.203174
485.974	0.169398
495.616	0.179802
505.258	0.195204
514.901	0.152462
524.543	0.137027
534.185	0.127153
543.828	0.0956663
553.47	0.0600993
563.112	0.040837
572.755	0.0275173
582.397	0.0194946
592.039	0.0162856
601.682	0.0159256
611.324	0.0160645
620.966	0.0187524
630.609	0.0260717
640.251	0.0497358
649.893	0.0347176
659.536	0.0554454
669.178	0.0510721
678.82	0.0806242
688.463	0.0878104
698.105	0.0368006
707.747	0.0249185
717.39	0.0278004
727.032	0.0359021
736.674	0.0451201
746.317	0.0605178
755.959	0.134178
765.601	0.0739719
775.244	0.0372903
784.886	0.0330368
794.528	0.035851
804.171	0.0364578
813.813	0.0337527
823.455	0.038849
833.098	0.0461066
842.74	0.0585363
852.382	0.0762692
862.025	0.0971685
871.667	0.121159
881.309	0.147837
890.952	0.184836
900.594	0.239244
910.236	0.313299
919.879	0.338348
929.521	0.246547
939.163	0.288026
948.806	0.361844
958.448	0.337504
968.09	0.304945
977.733	0.292388
987.375	0.290131
997.017	0.255613
1006.66	0.196985
1016.3	0.147914
1025.94	0.11732
1035.59	0.13596
1045.23	0.13656
1054.87	0.143786
1064.51	0.142645
1074.16	0.130623
1083.8	0.11828
1093.44	0.120168
1103.08	0.121525
1112.72	0.107481
1122.37	0.080908
1132.01	0.0567533
1141.65	0.0344104
1151.3	0.021799
1160.94	0.0167225
1170.58	0.0142898
1180.22	0.0119208
1189.86	0.0102735
1199.51	0.00866768
1209.15	0.00665102
1218.79	0.00497358
1228.43	0.00430712
1238.08	0.00372778
1247.72	0.00340969
1257.36	0.00266274
1267	0.00228317
1276.64	0.00265137
1286.29	0.00233625
1295.93	0.0022954
1305.57	0.00217154
1315.21	0.00229534
1324.86	0.00217887
1334.5	0.00249675
1344.14	0.00267938
1353.78	0.00299911
1363.43	0.00336136
1373.07	0.00357187
1382.71	0.00423591
1392.35	0.00514245
1401.99	0.0063152
1411.64	0.00737807
1421.28	0.00848162
1430.92	0.0093315
1440.57	0.00958854
1450.21	0.00985987
1459.85	0.0095146
1469.49	0.00909591
1479.13	0.00798151
1488.78	0.00729887
1498.42	0.00649317
1508.06	0.00551871
1517.7	0.00484766
1527.35	0.00466743
1536.99	0.00450977
1546.63	0.00469585
1556.27	0.00517397
1565.91	0.00534068
1575.56	0.00542576
1585.2	0.00611942
1594.84	0.00621454
1604.48	0.00641404
1614.13	0.00651969
1623.77	0.00551237
1633.41	0.00597311
1643.05	0.00546135
1652.7	0.00443739
1662.34	0.00486121
1671.98	0.00441435
1681.62	0.00452623
1691.27	0.00438221
1700.91	0.00395106
1710.55	0.00430775
1720.19	0.00361161
1729.84	0.00347843
1739.48	0.00327512
1749.12	0.00244312
1758.76	0.00266366
1768.4	0.00255621
1778.05	0.0028141
1787.69	0.00271154
1797.33	0.00224275
1806.97	0.002399
1816.62	0.00207601
1826.26	0.00219364
1835.9	0.00181103
1845.54	0.00161913
1855.18	0.00249439
1864.83	0.00212573
1874.47	0.00175651
1884.11	0.000670493
1893.75	0.000716519
1903.4	0.000470397
1913.04	-0.00108745
1922.68	-0.000642521
1932.32	-0.000764125
1941.97	-0.00148232
1951.61	-0.00215413
1961.25	-0.00376597
1970.89	-0.00435033
1980.54	-0.00178438
1990.18	-0.00433019
1999.82	-0.00155299
2009.46	-0.00228629
2019.11	-0.00151315
2028.75	-0.00169301
2038.39	-0.000279584
2048.03	0.00163383
2057.67	0.00211081
2067.32	0.000555929
2076.96	0.00243004
2086.6	0.00213096
2096.24	0.00163005
2105.89	0.00314967
2115.53	0.00124381
2125.17	0.00018404
2134.81	-0.00100146
2144.45	-0.000160649
2154.1	-0.00324524
2163.74	-0.00193468
2173.38	0.000378785
2183.02	-0.00065786
2192.67	0.00204658
2202.31	0.00239211
2211.95	-0.000781452
2221.59	0.00487727
2231.24	0.00322974
2240.88	0.00298536
2250.52	0.00269057
2260.16	0.00450864
2269.8	0.00527581
2279.45	0.00522243
2289.09	0.00563722
2298.73	0.00565133
2308.38	0.00637793
2318.02	0.00706099
2327.66	0.0052471
2337.3	0.00546088
2346.94	0.00552216
2356.59	0.00463645
2366.23	0.00490076
2375.87	0.00490946
2385.51	0.00507247
2395.16	0.00508622
2404.8	0.00590887
2414.44	0.00617587
2424.08	0.00518908
2433.72	0.00596245
2443.37	0.00534037
2453.01	0.00598514
2462.65	0.00557568
2472.29	0.00508461
2481.94	0.00536941
2491.58	0.00572243
2501.22	0.00669692
2510.86	0.00647999
2520.51	0.00523114
2530.15	0.00605103
2539.79	0.0059534
2549.43	0.00605464
2559.07	0.00594863
2568.72	0.00572274
2578.36	0.0066903
2588	0.00553635
2597.64	0.00523132
2607.29	0.00711126
2616.93	0.00683278
2626.57	0.00618928
2636.21	0.00662701
2645.86	0.00700918
2655.5	0.00739981
2665.14	0.00675136
2674.78	0.00554075
2684.43	0.00591719
2694.07	0.00543963
2703.71	0.00630352
2713.35	0.00571945
2722.99	0.00588312
2732.64	0.00636072
2742.28	0.00648327
2751.92	0.00640374
2761.56	0.0068821
2771.21	0.00653489
2780.85	0.0069651
2790.49	0.00616909
2800.13	0.00625576
2809.78	0.00630155
2819.42	0.00657638
2829.06	0.00734743
2838.7	0.00676268
2848.34	0.00632763
2857.99	0.00735596
2867.63	0.00766717
2877.27	0.00723084
2886.91	0.00706841
2896.56	0.00749513
2906.2	0.00796986
2915.84	0.00820502
2925.48	0.00909206
2935.13	0.00816426
2944.77	0.00776611
2954.41	0.0082497
2964.05	0.00810884
2973.7	0.00777045
2983.34	0.00837204
2992.98	0.00717307
3002.62	0.00768059
3012.26	0.00669238
3021.91	0.00715671
3031.55	0.0077341
3041.19	0.00702426
3050.83	0.00789461
3060.48	0.00936476
3070.12	0.00899885
3079.76	0.00775047
3089.4	0.00895779
3099.05	0.00747906
3108.69	0.00899063
3118.33	0.00761595
3127.97	0.00784876
3137.61	0.00848919
3147.26	0.00802415
3156.9	0.00890708
3166.54	0.0084235
3176.18	0.00954542
3185.83	0.00986316
3195.47	0.0112644
3205.11	0.00851532
3214.75	0.00875883
3224.4	0.00790836
3234.04	0.00973559
3243.68	0.00825034
3253.32	0.0090295
3262.97	0.0100094
3272.61	0.00845921
3282.25	0.0095243
3291.89	0.00927404
3301.53	0.00863256
3311.18	0.00801778
3320.82	0.00955426
3330.46	0.00931942
3340.1	0.0101884
3349.75	0.0093192
3359.39	0.00921623
3369.03	0.0110311
3378.67	0.0102123
3388.32	0.0108622
3397.96	0.00967751
3407.6	0.00886177
3417.24	0.0102265
3426.89	0.0106972
3436.53	0.011242
3446.17	0.0104019
3455.81	0.00977586
3465.45	0.0110734
3475.1	0.00966815
3484.74	0.0102512
3494.38	0.00918901
3504.02	0.00639875
3513.67	0.00898244
3523.31	0.0083448
3532.95	0.00905046
3542.59	0.00797446
3552.24	0.00814294
3561.88	0.00715987
3571.52	0.00844299
3581.16	0.00815348
3590.8	0.00879175
3600.45	0.00837492
3610.09	0.00861875
3619.73	0.0083017
3629.37	0.00692323
3639.02	0.00890806
3648.66	0.00784086
3658.3	0.00942692
3667.94	0.00747001
3677.59	0.00984827
3687.23	0.00381738
3696.87	0.00694744
3706.51	0.00729061
3716.16	0.00843921
3725.8	0.00428299
3735.44	0.00524469
3745.08	0.00486122
3754.72	0.00464125
3764.37	0.00647209
3774.01	0.00420738
3783.65	0.00727688
3793.29	0.00461508
3802.94	0.00763034
3812.58	0.0101203
3822.22	0.00581289
3831.86	0.00569222
3841.51	0.00315776
3851.15	0.00746271
3860.79	0.00793973
3870.43	0.00375122
3880.07	0.00432024
3889.72	0.00693673
3899.36	0.00540644
3909	0.00412957
3918.64	0.00843119
3928.29	0.00642987
3937.93	0.00448166
3947.57	0.00611993
3957.21	0.00722511
3966.86	0.00429347
3976.5	0.00595398
3986.14	0.00724471
3995.78	0.00635529
