Measurement: Infrared, Infrared Data Processed
Mineral: Tremolite
Rruff sample: R050210
Ideal chemistry: [box]Ca_2_Mg_5_Si_8_O_22_(OH)_2_
Locality: Sugar Lake, Cherryville, British Columbia, Canada
Source: Lloyd Twaites
Description: Green bladed crystal fragment
Measured chemistry: (Na_0.34_K_0.06_)(Ca_1.96_Mg_0.01_)Mg_4.94_(Si_7.50_Al_0.46_)O_22_(OH)_2_
x	intensity
374.123	0.128265
383.765	0.123596
393.407	0.142234
403.05	0.135108
412.692	0.139681
422.334	0.130622
431.976	0.147074
441.619	0.182099
451.261	0.182371
460.904	0.172927
470.546	0.158716
480.188	0.137934
489.83	0.11981
499.473	0.128241
509.115	0.136794
518.758	0.110433
528.4	0.0989483
538.042	0.0897048
547.684	0.0672749
557.327	0.0462283
566.969	0.0323244
576.611	0.0209269
586.254	0.0158053
595.896	0.013618
605.538	0.0149554
615.181	0.0179158
624.823	0.0243361
634.466	0.0322979
644.108	0.0330574
653.75	0.0324084
663.393	0.0421839
673.035	0.0425345
682.677	0.0425545
692.319	0.0347872
701.962	0.0262765
711.604	0.0349319
721.246	0.0257466
730.889	0.0280008
740.531	0.0368527
750.173	0.0516752
759.816	0.0551778
769.458	0.0347265
779.101	0.0322852
788.743	0.0345888
798.385	0.039985
808.028	0.0445076
817.67	0.0510264
827.312	0.0601445
836.955	0.0734966
846.597	0.0933992
856.239	0.108425
865.881	0.134021
875.524	0.175032
885.166	0.139293
894.808	0.142724
904.451	0.163306
914.093	0.186716
923.736	0.176887
933.378	0.153567
943.02	0.176473
952.663	0.193777
962.305	0.188938
971.947	0.179432
981.59	0.169795
991.232	0.161798
1000.87	0.141587
1010.52	0.116241
1020.16	0.0965651
1029.8	0.0879177
1039.44	0.0996965
1049.09	0.104247
1058.73	0.111081
1068.37	0.110337
1078.01	0.09955
1087.65	0.0876791
1097.3	0.0799928
1106.94	0.07115
1116.58	0.0589916
1126.22	0.0436348
1135.87	0.0308375
1145.51	0.0202854
1155.15	0.0141268
1164.79	0.0123182
1174.44	0.0111718
1184.08	0.0107536
1193.72	0.0104293
1203.36	0.0102911
1213.01	0.0104209
1222.65	0.0104947
1232.29	0.0110293
1241.93	0.0114852
1251.58	0.0119682
1261.22	0.012851
1270.86	0.0138177
1280.5	0.0153767
1290.14	0.0170112
1299.79	0.0188326
1309.43	0.0208829
1319.07	0.0231652
1328.71	0.0259982
1338.36	0.0296654
1348	0.0341396
1357.64	0.0400527
1367.28	0.0479118
1376.92	0.0578552
1386.57	0.0708899
1396.21	0.0867126
1405.85	0.0972791
1415.49	0.104801
1425.14	0.105037
1434.78	0.102263
1444.42	0.0975172
1454.06	0.0908579
1463.71	0.0824497
1473.35	0.073883
1482.99	0.0649243
1492.63	0.0557852
1502.28	0.0466936
1511.92	0.0375507
1521.56	0.02924
1531.2	0.0221397
1540.85	0.015639
1550.49	0.00989929
1560.13	0.00700685
1569.77	0.00575637
1579.41	0.00510881
1589.06	0.00446902
1598.7	0.0038524
1608.34	0.00315585
1617.98	0.00289102
1627.63	0.00275334
1637.27	0.00249106
1646.91	0.00236616
1656.55	0.00198949
1666.19	0.00188017
1675.84	0.00182885
1685.48	0.00193074
1695.12	0.00187816
1704.77	0.0018584
1714.41	0.00161977
1724.05	0.00134753
1733.69	0.00102815
1743.33	0.000623219
1752.98	0.000701706
1762.62	0.000874227
1772.26	0.00102119
1781.9	0.00143107
1791.55	0.00315197
1801.19	0.00279095
1810.83	0.00124158
1820.47	0.000773706
1830.12	0.000668183
1839.76	0.000231947
1849.4	0.000172977
1859.04	0.000424868
1868.68	0.00028208
1878.33	-9.6458e-05
1887.97	8.09719e-05
1897.61	-5.07979e-05
1907.25	-9.28922e-05
1916.9	-0.00067237
1926.54	-0.0005092
1936.18	-0.000877455
1945.82	-0.000360743
1955.46	-0.00104509
1965.11	-0.000433886
1974.75	-0.00100151
1984.39	0.00035198
1994.04	0.000901717
2003.68	0.000574785
2013.32	0.00111236
2022.96	0.000757471
2032.6	0.00289502
2042.25	0.0031185
2051.89	0.00264992
2061.53	0.00207662
2071.17	0.00236362
2080.82	0.00190016
2090.46	0.000989241
2100.1	0.00245294
2109.74	0.00109811
2119.39	0.000893863
2129.03	-0.000195621
2138.67	0.000811028
2148.31	0.000419008
2157.95	-0.000214767
2167.6	0.00188353
2177.24	0.00256144
2186.88	0.00185698
2196.52	0.0030418
2206.17	0.0019129
2215.81	0.00222302
2225.45	0.00209656
2235.09	0.00230279
2244.74	0.00228236
2254.38	0.00357089
2264.02	0.00301196
2273.66	0.00482739
2283.3	0.00498811
2292.95	0.00430036
2302.59	0.00413289
2312.23	0.00385376
2321.87	0.00479792
2331.52	0.00344176
2341.16	0.00297711
2350.8	0.00348768
2360.44	0.00285608
2370.09	0.0027003
2379.73	0.00312433
2389.37	0.00323075
2399.01	0.00331371
2408.66	0.00337327
2418.3	0.00354307
2427.94	0.00387853
2437.58	0.00346167
2447.22	0.00381357
2456.87	0.00383479
2466.51	0.00379253
2476.15	0.00365348
2485.79	0.00377604
2495.44	0.00438875
2505.08	0.00539185
2514.72	0.00556646
2524.36	0.00540163
2534.01	0.00401888
2543.65	0.00434416
2553.29	0.00386571
2562.93	0.00400219
2572.57	0.00421166
2582.22	0.00390986
2591.86	0.00458506
2601.5	0.00414553
2611.14	0.00505349
2620.79	0.00475685
2630.43	0.00466291
2640.07	0.00478433
2649.71	0.00485166
2659.36	0.00480408
2669	0.00442114
2678.64	0.0043325
2688.28	0.00408
2697.93	0.00406053
2707.57	0.00447595
2717.21	0.00430601
2726.85	0.00450925
2736.49	0.00420622
2746.14	0.00443583
2755.78	0.00417686
2765.42	0.0042541
2775.06	0.00408007
2784.71	0.00387347
2794.35	0.00359463
2803.99	0.00359399
2813.63	0.00373483
2823.28	0.0038688
2832.92	0.00425975
2842.56	0.00420652
2852.2	0.00312997
2861.84	0.00416297
2871.49	0.00463685
2881.13	0.00463674
2890.77	0.00444273
2900.41	0.00440937
2910.06	0.0040579
2919.7	0.00291867
2929.34	0.00483054
2938.98	0.0044415
2948.62	0.00443455
2958.27	0.00477341
2967.91	0.00491005
2977.55	0.00508182
2987.2	0.00424329
2996.84	0.00449268
3006.48	0.00459306
3016.12	0.00419546
3025.76	0.00516292
3035.41	0.00493855
3045.05	0.00524215
3054.69	0.00507765
3064.33	0.0053604
3073.98	0.00582145
3083.62	0.00562708
3093.26	0.00617738
3102.9	0.00636372
3112.55	0.00600979
3122.19	0.00603817
3131.83	0.00659421
3141.47	0.00648984
3151.11	0.00673595
3160.76	0.00625547
3170.4	0.00726473
3180.04	0.00736669
3189.68	0.00683154
3199.33	0.00707838
3208.97	0.00810205
3218.61	0.00730907
3228.25	0.00723237
3237.9	0.00774947
3247.54	0.00754938
3257.18	0.00785339
3266.82	0.00753035
3276.47	0.00797459
3286.11	0.00770926
3295.75	0.00778966
3305.39	0.00753126
3315.03	0.00784942
3324.68	0.00770439
3334.32	0.00794058
3343.96	0.00833648
3353.6	0.00813393
3363.25	0.00836232
3372.89	0.00760652
3382.53	0.00780034
3392.17	0.00812342
3401.82	0.00789521
3411.46	0.00796161
3421.1	0.00745398
3430.74	0.00757054
3440.39	0.00741234
3450.03	0.00804871
3459.67	0.00807563
3469.31	0.00806721
3478.95	0.007439
3488.6	0.00763021
3498.24	0.00731672
3507.88	0.00779996
3517.52	0.00838562
3527.17	0.00832455
3536.81	0.00840839
3546.45	0.0079866
3556.09	0.00805648
3565.74	0.00730177
3575.38	0.00714236
3585.02	0.00715322
3594.66	0.00763863
3604.3	0.00785135
3613.95	0.00767027
3623.59	0.00762592
3633.23	0.00847827
3642.87	0.00783914
3652.52	0.00796787
3662.16	0.00814813
3671.8	0.0182676
3681.44	0.0082578
3691.09	0.00640616
3700.73	0.007217
3710.37	0.00641231
3720.01	0.00765984
3729.66	0.0069634
3739.3	0.00680162
3748.94	0.00750231
3758.58	0.00623958
3768.22	0.00729979
3777.87	0.00806385
3787.51	0.00731433
3797.15	0.00869483
3806.79	0.00743055
3816.44	0.00744852
3826.08	0.00813648
3835.72	0.00734524
3845.36	0.0072024
3855.01	0.00818939
3864.65	0.00757958
3874.29	0.00784467
3883.93	0.00796686
3893.57	0.00878079
3903.22	0.00755617
3912.86	0.00841648
3922.5	0.00890875
3932.14	0.00822205
3941.79	0.00751827
3951.43	0.00855768
3961.07	0.00829194
3970.71	0.00880595
3980.36	0.00893631
3990	0.0085943
3999.64	0.00894529
