Measurement: Infrared, Infrared Data Processed
Mineral: Triphylite
Rruff sample: R050624
Ideal chemistry: LiFe^2+^PO_4_
Locality: Minas Gerais, Brazil
Source: Gemological Center
Description: Brown fragment
Measured chemistry: Li_1.00_(Fe^2+^_0.55_Mn^2+^_0.45_)_Î£=1_P_1.00_O_4_ ; Li not measured, but estimated by difference
x	intensity
399.193	0.129558
408.835	0.117938
418.477	0.126437
428.12	0.142453
437.762	0.16238
447.404	0.208336
457.047	0.26511
466.689	0.2383
476.331	0.199573
485.974	0.192405
495.616	0.186411
505.258	0.163021
514.901	0.152631
524.543	0.139079
534.185	0.137578
543.828	0.201897
553.47	0.161246
563.112	0.10148
572.755	0.146357
582.397	0.110384
592.039	0.0553893
601.682	0.0428716
611.324	0.0467985
620.966	0.0872957
630.609	0.228884
640.251	0.193754
649.893	0.0815397
659.536	0.0298576
669.178	0.0215766
678.82	0.0194799
688.463	0.0183304
698.105	0.0173135
707.747	0.0172122
717.39	0.0180921
727.032	0.0179775
736.674	0.0195386
746.317	0.0206438
755.959	0.0217234
765.601	0.0234191
775.244	0.0252636
784.886	0.0280524
794.528	0.0307807
804.171	0.0343893
813.813	0.0395757
823.455	0.0462345
833.098	0.0541157
842.74	0.0633046
852.382	0.0744227
862.025	0.0896107
871.667	0.108968
881.309	0.136813
890.952	0.171043
900.594	0.219407
910.236	0.278246
919.879	0.343753
929.521	0.418248
939.163	0.465642
948.806	0.45769
958.448	0.465584
968.09	0.44468
977.733	0.423226
987.375	0.405881
997.017	0.372644
1006.66	0.33827
1016.3	0.333698
1025.94	0.366302
1035.59	0.393569
1045.23	0.379776
1054.87	0.345618
1064.51	0.297009
1074.16	0.244397
1083.8	0.205015
1093.44	0.228859
1103.08	0.158583
1112.72	0.107385
1122.37	0.0678372
1132.01	0.0938278
1141.65	0.118289
1151.3	0.067629
1160.94	0.0324179
1170.58	0.016353
1180.22	0.0106212
1189.86	0.00806678
1199.51	0.0064341
1209.15	0.00537006
1218.79	0.00463428
1228.43	0.00406019
1238.08	0.00319532
1247.72	0.00302806
1257.36	0.00296403
1267	0.00322226
1276.64	0.00368912
1286.29	0.00304589
1295.93	0.0028478
1305.57	0.00299797
1315.21	0.00277259
1324.86	0.0030118
1334.5	0.00284177
1344.14	0.00324841
1353.78	0.00308126
1363.43	0.00336675
1373.07	0.00351393
1382.71	0.00419946
1392.35	0.00459713
1401.99	0.00522415
1411.64	0.00545405
1421.28	0.00552656
1430.92	0.00559903
1440.57	0.00539637
1450.21	0.00537767
1459.85	0.00493098
1469.49	0.00525308
1479.13	0.00614527
1488.78	0.00641407
1498.42	0.00680816
1508.06	0.00708913
1517.7	0.00700175
1527.35	0.00744249
1536.99	0.00795917
1546.63	0.00769257
1556.27	0.00830884
1565.91	0.00813239
1575.56	0.00877106
1585.2	0.00862015
1594.84	0.00892911
1604.48	0.00885558
1614.13	0.00889466
1623.77	0.00879154
1633.41	0.00929144
1643.05	0.00885659
1652.7	0.00971918
1662.34	0.00874782
1671.98	0.00859655
1681.62	0.00864968
1691.27	0.00833855
1700.91	0.00870086
1710.55	0.00823651
1720.19	0.00797208
1729.84	0.00769572
1739.48	0.00600073
1749.12	0.00550421
1758.76	0.00660615
1768.4	0.00828613
1778.05	0.0076915
1787.69	0.00753784
1797.33	0.00780145
1806.97	0.00767671
1816.62	0.00749269
1826.26	0.00735722
1835.9	0.00795989
1845.54	0.00761706
1855.18	0.00779513
1864.83	0.00732533
1874.47	0.00774993
1884.11	0.00887159
1893.75	0.00738426
1903.4	0.00749326
1913.04	0.00659276
1922.68	0.00675379
1932.32	0.00609234
1941.97	0.00584363
1951.61	0.00412002
1961.25	0.00216099
1970.89	0.00155485
1980.54	0.00471902
1990.18	0.00358753
1999.82	0.00348801
2009.46	0.00396982
2019.11	0.0022521
2028.75	0.00199144
2038.39	0.00261238
2048.03	0.00315965
2057.67	0.00722117
2067.32	0.00561026
2076.96	0.00665698
2086.6	0.00968233
2096.24	0.00614639
2105.89	0.00569415
2115.53	0.00781817
2125.17	0.00624872
2134.81	0.00370343
2144.45	0.00159327
2154.1	0.000888885
2163.74	0.00706543
2173.38	0.0024922
2183.02	0.00514403
2192.67	0.00460782
2202.31	0.00396889
2211.95	0.0103195
2221.59	0.00977423
2231.24	0.0109317
2240.88	0.010159
2250.52	0.0123328
2260.16	0.0113089
2269.8	0.0101969
2279.45	0.0108311
2289.09	0.0133152
2298.73	0.0144216
2308.38	0.0154108
2318.02	0.0162313
2327.66	0.0159347
2337.3	0.0167948
2346.94	0.0165587
2356.59	0.0167761
2366.23	0.0170919
2375.87	0.015827
2385.51	0.0142877
2395.16	0.0158874
2404.8	0.0156059
2414.44	0.0163295
2424.08	0.0149122
2433.72	0.0171529
2443.37	0.0185894
2453.01	0.0170875
2462.65	0.0175949
2472.29	0.0180911
2481.94	0.0173082
2491.58	0.0176489
2501.22	0.0175205
2510.86	0.0202749
2520.51	0.0173629
2530.15	0.0177527
2539.79	0.0180908
2549.43	0.0203252
2559.07	0.0180185
2568.72	0.0185787
2578.36	0.0194464
2588	0.0187003
2597.64	0.0188699
2607.29	0.0193643
2616.93	0.0190646
2626.57	0.0201187
2636.21	0.0209582
2645.86	0.0203355
2655.5	0.021112
2665.14	0.0199186
2674.78	0.0203522
2684.43	0.0213199
2694.07	0.0212592
2703.71	0.0216272
2713.35	0.0211874
2722.99	0.0217644
2732.64	0.020581
2742.28	0.0211012
2751.92	0.0228987
2761.56	0.0217511
2771.21	0.0236415
2780.85	0.0228532
2790.49	0.0232608
2800.13	0.0234182
2809.78	0.0256025
2819.42	0.0235705
2829.06	0.0244292
2838.7	0.0250467
2848.34	0.0238285
2857.99	0.0254266
2867.63	0.0246296
2877.27	0.0254331
2886.91	0.0243285
2896.56	0.0254632
2906.2	0.0256532
2915.84	0.0252288
2925.48	0.0255398
2935.13	0.0274979
2944.77	0.0264168
2954.41	0.0267096
2964.05	0.0293491
2973.7	0.0301268
2983.34	0.0286026
2992.98	0.030363
3002.62	0.0301664
3012.26	0.0312887
3021.91	0.0315841
3031.55	0.0302735
3041.19	0.0336725
3050.83	0.0324751
3060.48	0.0323233
3070.12	0.0312682
3079.76	0.0310094
3089.4	0.031143
3099.05	0.0317571
3108.69	0.0331378
3118.33	0.0318742
3127.97	0.0329048
3137.61	0.0343351
3147.26	0.0344628
3156.9	0.0321499
3166.54	0.0343882
3176.18	0.0330667
3185.83	0.0360963
3195.47	0.035682
3205.11	0.0344769
3214.75	0.0361376
3224.4	0.0352908
3234.04	0.0340827
3243.68	0.0367439
3253.32	0.0361911
3262.97	0.0368955
3272.61	0.0364351
3282.25	0.0378694
3291.89	0.0344341
3301.53	0.0371063
3311.18	0.0378279
3320.82	0.0380297
3330.46	0.0382318
3340.1	0.03783
3349.75	0.0375715
3359.39	0.0398079
3369.03	0.0362594
3378.67	0.0365646
3388.32	0.039603
3397.96	0.0382474
3407.6	0.040082
3417.24	0.0364517
3426.89	0.0421887
3436.53	0.0404671
3446.17	0.0385907
3455.81	0.038794
3465.45	0.0401405
3475.1	0.0402233
3484.74	0.0391656
3494.38	0.0398737
3504.02	0.0397656
3513.67	0.0414267
3523.31	0.0371619
3532.95	0.0383603
3542.59	0.0417254
3552.24	0.0362136
3561.88	0.0412824
3571.52	0.0365382
3581.16	0.0410225
3590.8	0.0379299
3600.45	0.0378385
3610.09	0.0379562
3619.73	0.0364307
3629.37	0.0396962
3639.02	0.0377576
3648.66	0.0401834
3658.3	0.0413528
3667.94	0.0389897
3677.59	0.0383009
3687.23	0.0379639
3696.87	0.0408281
3706.51	0.0377577
3716.16	0.0393409
3725.8	0.0429656
3735.44	0.0437356
3745.08	0.0426342
3754.72	0.0468457
3764.37	0.0378632
3774.01	0.0428751
3783.65	0.0406152
3793.29	0.0447456
3802.94	0.0475495
3812.58	0.0439428
3822.22	0.0428423
3831.86	0.0438157
3841.51	0.0415923
3851.15	0.0410159
3860.79	0.0468405
3870.43	0.0402686
3880.07	0.0425391
3889.72	0.0419933
3899.36	0.044187
3909	0.0432671
3918.64	0.0491205
3928.29	0.0479736
3937.93	0.0439488
3947.57	0.0450672
3957.21	0.0456954
3966.86	0.045399
3976.5	0.0490237
3986.14	0.0471949
3995.78	0.0450998
