Measurement: Infrared, Infrared Data Processed
Mineral: Triphylite
Rruff sample: R050257
Ideal chemistry: LiFe^2+^PO_4_
Locality: Palermo mine, North Groton, Grafton County, New Hampshire, USA
Source: Marcus Origlieri
Description: Dark gray massive
Measured chemistry: Li_1.00_(Fe^2+^_0.73_Mn^2+^_0.19_Mg_0.08_)_Î£=1_P_1.00_O_4_
x	intensity
50.1401	0.0054986
52.0686	0.0148744
53.9971	0.0199843
55.9255	0.0182554
57.854	0.0263061
59.7825	0.0347326
61.7109	0.0265093
63.6394	0.0215235
65.5679	0.0235283
67.4963	0.0238909
69.4248	0.0218003
71.3533	0.024671
73.2817	0.0260525
75.2102	0.0261085
77.1387	0.0270825
79.0671	0.0287122
80.9956	0.0280255
82.9241	0.0263565
84.8525	0.0274256
86.781	0.0303327
88.7095	0.0324221
90.6379	0.0318265
92.5664	0.031889
94.4948	0.0337064
96.4233	0.033596
98.3518	0.0333317
100.28	0.0347832
102.209	0.0353439
104.137	0.0358267
106.066	0.0375357
107.994	0.0386859
109.923	0.0379483
111.851	0.0382953
113.779	0.0404781
115.708	0.0413062
117.636	0.0416436
119.565	0.0431642
121.493	0.0449456
123.422	0.045827
125.35	0.0463109
127.279	0.0468616
129.207	0.0489411
131.136	0.0507857
133.064	0.0527288
134.993	0.0545911
136.921	0.0561246
138.85	0.0569723
140.778	0.0567404
142.707	0.056588
144.635	0.0568342
146.563	0.057551
148.492	0.0592473
150.42	0.0607866
152.349	0.0613928
154.277	0.0617843
156.206	0.0634447
158.134	0.0649397
160.063	0.0661636
161.991	0.0663725
163.92	0.0670896
165.848	0.0688072
167.777	0.0698543
169.705	0.0710207
171.633	0.0722209
173.562	0.0727806
175.49	0.0739179
177.419	0.0756029
179.347	0.0770323
181.276	0.0777294
183.204	0.077608
185.133	0.0783748
187.061	0.0790053
188.99	0.0787864
190.918	0.0784714
192.847	0.0771674
194.775	0.0751065
196.704	0.0726409
198.632	0.0712204
200.56	0.0713644
202.489	0.0735717
204.417	0.0745423
206.346	0.0755475
208.274	0.0774243
210.203	0.0786846
212.131	0.0791731
214.06	0.0796957
215.988	0.0803148
217.917	0.0807409
219.845	0.0809293
221.774	0.0813387
223.702	0.0816118
225.631	0.082086
227.559	0.0820672
229.488	0.0812896
231.416	0.081261
233.344	0.0818104
235.273	0.0825254
237.201	0.0831365
239.13	0.0843334
241.058	0.0859895
242.987	0.0870097
244.915	0.0876195
246.844	0.0879316
248.772	0.0869163
250.701	0.0845253
252.629	0.0828173
254.558	0.0809565
256.486	0.0790363
258.414	0.0773172
260.343	0.0760164
262.271	0.0752659
264.2	0.0746646
266.128	0.0742434
268.057	0.074489
269.985	0.0755054
271.914	0.0769939
273.842	0.0779951
275.771	0.0789328
277.699	0.0799631
279.628	0.0806104
281.556	0.0808233
283.485	0.0811888
285.413	0.0810916
287.341	0.0808389
289.27	0.0807272
291.198	0.0808348
293.127	0.0807451
295.055	0.0806396
296.984	0.0804326
298.912	0.0799628
300.841	0.0797165
302.769	0.0793655
304.698	0.0780479
306.626	0.0765286
308.555	0.0753729
310.483	0.0748638
312.411	0.0745926
314.34	0.0739832
316.269	0.0739443
318.197	0.0744333
320.125	0.0748613
322.054	0.0758445
323.982	0.0769664
325.911	0.0779989
327.839	0.07931
329.768	0.0808443
331.696	0.0827647
333.625	0.0849668
335.553	0.0871625
337.482	0.0896274
339.41	0.0920225
341.339	0.0937453
343.267	0.0947018
345.195	0.0950123
347.124	0.0944945
349.052	0.0935205
350.981	0.092167
352.909	0.0901976
354.838	0.0881142
356.766	0.0866931
358.695	0.0854375
360.623	0.084549
362.552	0.0837907
364.48	0.0833937
366.409	0.0829675
368.337	0.0822798
370.265	0.0818645
372.194	0.0813636
374.122	0.0810563
376.051	0.0811365
377.979	0.080761
379.908	0.0800568
381.836	0.079365
383.765	0.0789263
385.693	0.078606
387.622	0.0780692
389.55	0.0772021
391.479	0.0764167
393.407	0.0756815
395.336	0.0746357
397.264	0.0737097
399.192	0.0727013
401.121	0.0714037
403.049	0.0705263
404.978	0.0698139
406.906	0.0690298
408.835	0.0682305
410.763	0.0675789
412.692	0.0668914
414.62	0.0667925
416.549	0.0670389
418.477	0.0672752
420.406	0.0673601
422.334	0.0675963
424.262	0.0679112
426.191	0.0681933
428.12	0.0687036
430.048	0.0695405
431.976	0.0706544
433.905	0.0717088
435.833	0.0727309
437.762	0.0739703
439.69	0.0754883
441.619	0.07709
443.547	0.0786676
445.476	0.0804086
447.404	0.0825948
449.333	0.0852293
451.261	0.0880423
453.19	0.0912593
455.118	0.094753
457.046	0.0978815
458.975	0.100561
460.903	0.102802
462.832	0.104199
464.76	0.105041
466.689	0.104476
468.617	0.103152
470.546	0.101302
472.474	0.0995098
474.403	0.0976523
476.331	0.095643
478.26	0.0935395
480.188	0.0919429
482.116	0.0909829
484.045	0.0904936
485.974	0.0898058
487.902	0.0893709
489.83	0.0893104
491.759	0.0896843
493.687	0.0897099
495.616	0.0890718
497.544	0.0885628
499.473	0.0882157
501.401	0.0875624
503.33	0.0860819
505.258	0.0843218
507.187	0.0832037
509.115	0.0824133
511.043	0.0818648
512.972	0.0811077
514.9	0.0799876
516.829	0.0791649
518.757	0.0791835
520.686	0.078991
522.614	0.0778563
524.543	0.0769383
526.471	0.076588
528.4	0.0756183
530.328	0.0747594
532.257	0.0747096
534.185	0.0748229
536.114	0.0758933
538.042	0.0782994
539.971	0.0814432
541.899	0.0860341
543.827	0.0916718
545.756	0.0961382
547.684	0.0973595
549.613	0.0961488
551.541	0.093194
553.47	0.0884354
555.398	0.0828258
557.327	0.0772736
559.255	0.0722141
561.184	0.0681265
563.112	0.0656105
565.041	0.0647219
566.969	0.0649123
568.898	0.0673026
570.826	0.0712435
572.755	0.0753594
574.683	0.0788174
576.611	0.0803612
578.54	0.0793036
580.468	0.0759671
582.397	0.071117
584.325	0.0654606
586.254	0.0596784
588.182	0.0547504
590.111	0.0507435
592.039	0.0474961
593.968	0.0453587
595.896	0.0440946
597.824	0.0428067
599.753	0.0413824
601.682	0.0400568
603.61	0.0396948
605.538	0.0389642
607.467	0.038473
609.395	0.0387976
611.324	0.0397033
613.252	0.0414386
615.181	0.043226
617.109	0.0452577
619.038	0.0486569
620.966	0.0534534
622.894	0.0596637
624.823	0.0669186
626.751	0.0755085
628.68	0.0848483
630.608	0.0938495
632.537	0.100967
634.465	0.104967
636.394	0.105833
638.322	0.104298
640.251	0.101672
642.179	0.097986
644.108	0.0935937
646.036	0.0895787
647.965	0.0845851
649.893	0.0784522
651.822	0.0716479
653.75	0.0647259
655.678	0.0581236
657.607	0.0526559
659.535	0.0484997
661.464	0.0458706
663.392	0.0441488
665.321	0.0429351
667.249	0.0422152
669.178	0.0415618
671.106	0.0410994
673.035	0.0414631
674.963	0.0412691
676.892	0.0408211
678.82	0.0410497
680.749	0.0407233
682.677	0.0413388
684.606	0.04206
686.534	0.0413504
688.462	0.0411677
690.391	0.0415889
692.319	0.0430073
694.248	0.0432644
696.176	0.043056
698.105	0.0425709
700.033	0.0410292
