Measurement: Infrared, Infrared Data Processed
Mineral: Triplite
Rruff sample: R050226
Ideal chemistry: Mn^2+^_2_(PO_4_)F
Locality: Fremont County, Colorado, USA
Source: Marcus Origlieri
Description: Reddish brown massive
Measured chemistry: (Mn^2+^_1.20_Mg_0.49_Fe^2+^_0.27_Ca_0.04_)_Σ=2_(P_1.00_O_4_)(F_0.95_(OH)_0.05_)_Σ=1_
x	intensity
374.123	0.201078
383.765	0.150586
393.407	0.132489
403.05	0.112453
412.692	0.0925587
422.334	0.0811399
431.976	0.0751786
441.619	0.0837266
451.261	0.0979318
460.904	0.0892217
470.546	0.0760775
480.188	0.0651161
489.83	0.056965
499.473	0.0493997
509.115	0.0459494
518.758	0.045318
528.4	0.050066
538.042	0.0637325
547.684	0.0906935
557.327	0.154382
566.969	0.241202
576.611	0.264475
586.254	0.2128
595.896	0.15977
605.538	0.126586
615.181	0.0952387
624.823	0.0792872
634.466	0.056584
644.108	0.0414853
653.75	0.0359076
663.393	0.0307124
673.035	0.0247691
682.677	0.0224906
692.319	0.0213367
701.962	0.0208
711.604	0.0201787
721.246	0.0203908
730.889	0.020267
740.531	0.019979
750.173	0.0199572
759.816	0.0207832
769.458	0.0218352
779.101	0.0232931
788.743	0.0247193
798.385	0.0262918
808.028	0.027792
817.67	0.029081
827.312	0.0300372
836.955	0.0316003
846.597	0.0341695
856.239	0.0387701
865.881	0.0465331
875.524	0.0473742
885.166	0.0545158
894.808	0.0642103
904.451	0.0755714
914.093	0.0883725
923.736	0.10411
933.378	0.123824
943.02	0.14916
952.663	0.181957
962.305	0.212917
971.947	0.252507
981.59	0.274483
991.232	0.335769
1000.87	0.40758
1010.52	0.442864
1020.16	0.447679
1029.8	0.436077
1039.44	0.406843
1049.09	0.356349
1058.73	0.308078
1068.37	0.271678
1078.01	0.224284
1087.65	0.179256
1097.3	0.142816
1106.94	0.10724
1116.58	0.07772
1126.22	0.0574774
1135.87	0.0406892
1145.51	0.0262443
1155.15	0.017609
1164.79	0.0138285
1174.44	0.0112033
1184.08	0.00955976
1193.72	0.00804889
1203.36	0.00690241
1213.01	0.00599867
1222.65	0.00518497
1232.29	0.00465691
1241.93	0.00429731
1251.58	0.0039223
1261.22	0.00378639
1270.86	0.00371032
1280.5	0.00378352
1290.14	0.00372126
1299.79	0.00386845
1309.43	0.00396422
1319.07	0.00408169
1328.71	0.00428735
1338.36	0.00448543
1348	0.0049172
1357.64	0.00530155
1367.28	0.00573769
1376.92	0.0062195
1386.57	0.00685069
1396.21	0.00792717
1405.85	0.00907528
1415.49	0.010286
1425.14	0.0119076
1434.78	0.0128241
1444.42	0.0133609
1454.06	0.0133196
1463.71	0.0124741
1473.35	0.0116917
1482.99	0.0106705
1492.63	0.0096124
1502.28	0.00893337
1511.92	0.00799031
1521.56	0.00764628
1531.2	0.00757961
1540.85	0.00752225
1550.49	0.00786425
1560.13	0.00812584
1569.77	0.00856755
1579.41	0.00893949
1589.06	0.00901338
1598.7	0.00931286
1608.34	0.00913593
1617.98	0.0092143
1627.63	0.00924269
1637.27	0.00913993
1646.91	0.00930141
1656.55	0.00902425
1666.19	0.00897157
1675.84	0.00847927
1685.48	0.00837552
1695.12	0.00807107
1704.77	0.0079119
1714.41	0.00782893
1724.05	0.00774524
1733.69	0.00774547
1743.33	0.00737199
1752.98	0.00710371
1762.62	0.00742925
1772.26	0.00721543
1781.9	0.00761681
1791.55	0.00728056
1801.19	0.00741914
1810.83	0.00754512
1820.47	0.00751241
1830.12	0.007727
1839.76	0.00726277
1849.4	0.00762098
1859.04	0.00795249
1868.68	0.00763292
1878.33	0.00765996
1887.97	0.00778851
1897.61	0.00784219
1907.25	0.00755429
1916.9	0.00735598
1926.54	0.00730512
1936.18	0.00701428
1945.82	0.00673925
1955.46	0.00696476
1965.11	0.00571904
1974.75	0.00503083
1984.39	0.00642666
1994.04	0.00699215
2003.68	0.00612595
2013.32	0.00600016
2022.96	0.0052617
2032.6	0.00591865
2042.25	0.00747664
2051.89	0.0079875
2061.53	0.00831302
2071.17	0.00881885
2080.82	0.00944003
2090.46	0.00824607
2100.1	0.00934175
2109.74	0.00869109
2119.39	0.0078404
2129.03	0.00641841
2138.67	0.00636773
2148.31	0.0065504
2157.95	0.00562227
2167.6	0.00927423
2177.24	0.00858523
2186.88	0.00943679
2196.52	0.0102623
2206.17	0.0106997
2215.81	0.0113985
2225.45	0.0107093
2235.09	0.011569
2244.74	0.0119257
2254.38	0.0121791
2264.02	0.0123118
2273.66	0.0130435
2283.3	0.0144166
2292.95	0.0136749
2302.59	0.0134696
2312.23	0.0135032
2321.87	0.0144208
2331.52	0.012659
2341.16	0.0124519
2350.8	0.0126885
2360.44	0.0121042
2370.09	0.0119575
2379.73	0.0127005
2389.37	0.0126394
2399.01	0.0128197
2408.66	0.0132495
2418.3	0.0136174
2427.94	0.0135812
2437.58	0.0137625
2447.22	0.0137422
2456.87	0.0141639
2466.51	0.0141048
2476.15	0.0137426
2485.79	0.013857
2495.44	0.0140739
2505.08	0.0143934
2514.72	0.0144614
2524.36	0.0143029
2534.01	0.0144922
2543.65	0.0147651
2553.29	0.0152072
2562.93	0.0151912
2572.57	0.016103
2582.22	0.0161365
2591.86	0.0159127
2601.5	0.016826
2611.14	0.0167353
2620.79	0.016616
2630.43	0.0168901
2640.07	0.016884
2649.71	0.0170266
2659.36	0.0169623
2669	0.0168382
2678.64	0.0165176
2688.28	0.0166295
2697.93	0.0169812
2707.57	0.0172801
2717.21	0.0170063
2726.85	0.0175495
2736.49	0.017376
2746.14	0.0174232
2755.78	0.0176662
2765.42	0.017825
2775.06	0.0177364
2784.71	0.0179846
2794.35	0.0182368
2803.99	0.0181237
2813.63	0.0185104
2823.28	0.0188085
2832.92	0.0192886
2842.56	0.0197263
2852.2	0.0200582
2861.84	0.0201506
2871.49	0.0204021
2881.13	0.0203366
2890.77	0.0202305
2900.41	0.0210111
2910.06	0.0213896
2919.7	0.0220068
2929.34	0.02281
2938.98	0.0225444
2948.62	0.0215992
2958.27	0.0220346
2967.91	0.0216259
2977.55	0.0218402
2987.2	0.0209456
2996.84	0.0217138
3006.48	0.0223726
3016.12	0.0220092
3025.76	0.0220844
3035.41	0.0223282
3045.05	0.0228132
3054.69	0.0227884
3064.33	0.0230745
3073.98	0.0240009
3083.62	0.0238692
3093.26	0.0240193
3102.9	0.0243477
3112.55	0.0246265
3122.19	0.0243396
3131.83	0.0251769
3141.47	0.0245635
3151.11	0.02514
3160.76	0.025796
3170.4	0.0259966
3180.04	0.0256755
3189.68	0.0255752
3199.33	0.0260667
3208.97	0.0269074
3218.61	0.0260215
3228.25	0.0263584
3237.9	0.0262601
3247.54	0.0267891
3257.18	0.0265415
3266.82	0.0271052
3276.47	0.0257476
3286.11	0.026548
3295.75	0.026466
3305.39	0.0263479
3315.03	0.026908
3324.68	0.0266028
3334.32	0.0274608
3343.96	0.0269239
3353.6	0.0266273
3363.25	0.027492
3372.89	0.0266305
3382.53	0.0269323
3392.17	0.0266905
3401.82	0.0263156
3411.46	0.0265342
3421.1	0.0261249
3430.74	0.0260265
3440.39	0.0259391
3450.03	0.0270762
3459.67	0.0256044
3469.31	0.0258281
3478.95	0.0257603
3488.6	0.0257009
3498.24	0.0250183
3507.88	0.0257875
3517.52	0.0260894
3527.17	0.0248942
3536.81	0.024627
3546.45	0.0231347
3556.09	0.0232104
3565.74	0.0220255
3575.38	0.0218548
3585.02	0.021336
3594.66	0.0208105
3604.3	0.021122
3613.95	0.0202768
3623.59	0.0210164
3633.23	0.0210159
3642.87	0.0190097
3652.52	0.0198547
3662.16	0.0195881
3671.8	0.0200702
3681.44	0.0206031
3691.09	0.019485
3700.73	0.0202559
3710.37	0.0200871
3720.01	0.0203857
3729.66	0.0216322
3739.3	0.0206245
3748.94	0.0206505
3758.58	0.0200041
3768.22	0.0206196
3777.87	0.0205872
3787.51	0.0213758
3797.15	0.0216299
3806.79	0.020141
3816.44	0.021009
3826.08	0.0214112
3835.72	0.0213317
3845.36	0.0215551
3855.01	0.0208032
3864.65	0.0209157
3874.29	0.0207294
3883.93	0.0212347
3893.57	0.0213454
3903.22	0.0206145
3912.86	0.0214082
3922.5	0.0219145
3932.14	0.0211466
3941.79	0.0214563
3951.43	0.020611
3961.07	0.0220728
3970.71	0.0218442
3980.36	0.0225255
3990	0.0219717
3999.64	0.0218433
