Measurement: Infrared, Infrared Data Processed
Mineral: Triplite
Rruff sample: R050186
Ideal chemistry: Mn^2+^_2_(PO_4_)F
Locality: Wuzhou, Guangxi Autonomous Region, China
Source: John Lucking
Description: Orangish red fragments
Measured chemistry: (Mn^2+^_1.60_Fe^2+^_0.21_Mg_0.15_Ca_0.04_)_Σ=2_(P_1.00_O_4_)(F_0.80_(OH)_0.20_)_Σ=1_
x	intensity
374.123	0.113775
383.765	0.103137
393.407	0.0776691
403.05	0.071323
412.692	0.0579746
422.334	0.0466592
431.976	0.053589
441.619	0.0809908
451.261	0.0686388
460.904	0.0452668
470.546	0.036711
480.188	0.0318278
489.83	0.0290811
499.473	0.0269709
509.115	0.0282164
518.758	0.0310444
528.4	0.0374134
538.042	0.0506157
547.684	0.0806202
557.327	0.141578
566.969	0.227433
576.611	0.238947
586.254	0.171228
595.896	0.128117
605.538	0.0994404
615.181	0.0755894
624.823	0.0621763
634.466	0.0342092
644.108	0.0202985
653.75	0.0151651
663.393	0.0135862
673.035	0.0128931
682.677	0.0121329
692.319	0.0118355
701.962	0.0117667
711.604	0.0118635
721.246	0.0124488
730.889	0.0127774
740.531	0.0136322
750.173	0.0143871
759.816	0.0150732
769.458	0.0164131
779.101	0.0174101
788.743	0.0190681
798.385	0.0205895
808.028	0.0224742
817.67	0.0247311
827.312	0.02764
836.955	0.0298487
846.597	0.0325814
856.239	0.036377
865.881	0.0415413
875.524	0.0473038
885.166	0.0549787
894.808	0.0648068
904.451	0.0766242
914.093	0.0894878
923.736	0.105401
933.378	0.124716
943.02	0.148425
952.663	0.178347
962.305	0.216708
971.947	0.247776
981.59	0.254219
991.232	0.306573
1000.87	0.353238
1010.52	0.375284
1020.16	0.370951
1029.8	0.355089
1039.44	0.323012
1049.09	0.284715
1058.73	0.257903
1068.37	0.219933
1078.01	0.175028
1087.65	0.135274
1097.3	0.101983
1106.94	0.071045
1116.58	0.0514042
1126.22	0.0377974
1135.87	0.023679
1145.51	0.012871
1155.15	0.00868487
1164.79	0.00654442
1174.44	0.0056327
1184.08	0.00483299
1193.72	0.00401782
1203.36	0.00277224
1213.01	0.00181657
1222.65	0.00105674
1232.29	0.000503427
1241.93	3.23968e-05
1251.58	-0.000127408
1261.22	-0.00028685
1270.86	-0.000314398
1280.5	-9.1174e-05
1290.14	-4.65796e-05
1299.79	-0.000210803
1309.43	4.59846e-05
1319.07	0.000147232
1328.71	0.000328607
1338.36	0.000519178
1348	0.000560811
1357.64	0.000441102
1367.28	0.000626702
1376.92	0.000847701
1386.57	0.00103914
1396.21	0.00111881
1405.85	0.00130605
1415.49	0.00155728
1425.14	0.00192458
1434.78	0.00215853
1444.42	0.00205576
1454.06	0.00207663
1463.71	0.00230633
1473.35	0.00227892
1482.99	0.00191415
1492.63	0.00175251
1502.28	0.00180507
1511.92	0.00220403
1521.56	0.00267726
1531.2	0.0022446
1540.85	0.00309581
1550.49	0.00270557
1560.13	0.00351788
1569.77	0.0031342
1579.41	0.00305788
1589.06	0.0031597
1598.7	0.0032574
1608.34	0.00317723
1617.98	0.00349338
1627.63	0.00350992
1637.27	0.0036599
1646.91	0.00393994
1656.55	0.00377867
1666.19	0.0034575
1675.84	0.00345223
1685.48	0.00381175
1695.12	0.00362809
1704.77	0.00315804
1714.41	0.00309151
1724.05	0.00276543
1733.69	0.00282455
1743.33	0.00203811
1752.98	0.00222797
1762.62	0.00219122
1772.26	0.00283256
1781.9	0.00269774
1791.55	0.00282712
1801.19	0.00273506
1810.83	0.00256665
1820.47	0.00275481
1830.12	0.00280307
1839.76	0.00260329
1849.4	0.00268405
1859.04	0.00288462
1868.68	0.00298694
1878.33	0.002533
1887.97	0.00226515
1897.61	0.00207327
1907.25	0.00266279
1916.9	0.0027785
1926.54	0.00215399
1936.18	0.00294296
1945.82	0.00256174
1955.46	0.0023264
1965.11	0.00302178
1974.75	0.00388974
1984.39	0.00660394
1994.04	0.00466661
2003.68	0.00451806
2013.32	0.00426498
2022.96	0.00466716
2032.6	0.00491298
2042.25	0.00575162
2051.89	0.00543017
2061.53	0.00422335
2071.17	0.00438927
2080.82	0.00518862
2090.46	0.00440987
2100.1	0.00522413
2109.74	0.00493229
2119.39	0.00412814
2129.03	0.00436475
2138.67	0.0044171
2148.31	0.0071305
2157.95	0.00886089
2167.6	0.00910807
2177.24	0.0105103
2186.88	0.0100436
2196.52	0.00928426
2206.17	0.0083594
2215.81	0.00871981
2225.45	0.00778356
2235.09	0.0102567
2244.74	0.00988618
2254.38	0.00870027
2264.02	0.00817941
2273.66	0.00849728
2283.3	0.00809519
2292.95	0.00733065
2302.59	0.00698974
2312.23	0.00646261
2321.87	0.00650314
2331.52	0.0053653
2341.16	0.00552515
2350.8	0.00530707
2360.44	0.00547023
2370.09	0.00571462
2379.73	0.00500622
2389.37	0.00538318
2399.01	0.00599003
2408.66	0.00617415
2418.3	0.00611949
2427.94	0.00613348
2437.58	0.0063166
2447.22	0.00625049
2456.87	0.00575548
2466.51	0.00607812
2476.15	0.005838
2485.79	0.006348
2495.44	0.0053778
2505.08	0.00614689
2514.72	0.00528355
2524.36	0.00511628
2534.01	0.00552065
2543.65	0.00586344
2553.29	0.00535491
2562.93	0.00572499
2572.57	0.00629454
2582.22	0.00568247
2591.86	0.00630206
2601.5	0.0066366
2611.14	0.00611926
2620.79	0.00683777
2630.43	0.00641112
2640.07	0.00646419
2649.71	0.00608087
2659.36	0.00570872
2669	0.0056674
2678.64	0.0056003
2688.28	0.00541484
2697.93	0.00577827
2707.57	0.00549851
2717.21	0.00571044
2726.85	0.00620679
2736.49	0.00641945
2746.14	0.00582351
2755.78	0.00585014
2765.42	0.00593143
2775.06	0.00627606
2784.71	0.00601127
2794.35	0.00649064
2803.99	0.00599987
2813.63	0.00599366
2823.28	0.00631182
2832.92	0.00639165
2842.56	0.00686382
2852.2	0.00624106
2861.84	0.00611136
2871.49	0.00636391
2881.13	0.00689503
2890.77	0.00652059
2900.41	0.00626909
2910.06	0.00715988
2919.7	0.00714516
2929.34	0.00684249
2938.98	0.00606132
2948.62	0.00632142
2958.27	0.00625698
2967.91	0.00568781
2977.55	0.00568615
2987.2	0.0060267
2996.84	0.0061593
3006.48	0.00628082
3016.12	0.00537149
3025.76	0.00665382
3035.41	0.00632707
3045.05	0.00666493
3054.69	0.00678168
3064.33	0.00625287
3073.98	0.00614141
3083.62	0.00619232
3093.26	0.00752876
3102.9	0.00651538
3112.55	0.00712159
3122.19	0.00707165
3131.83	0.00632593
3141.47	0.00712033
3151.11	0.00695125
3160.76	0.00712424
3170.4	0.00730834
3180.04	0.00710216
3189.68	0.0078227
3199.33	0.00686016
3208.97	0.00696296
3218.61	0.00670189
3228.25	0.00713577
3237.9	0.00797645
3247.54	0.00702812
3257.18	0.00704831
3266.82	0.00750868
3276.47	0.00710341
3286.11	0.00695358
3295.75	0.0070837
3305.39	0.00677569
3315.03	0.00730195
3324.68	0.00605858
3334.32	0.00609776
3343.96	0.00701177
3353.6	0.00595559
3363.25	0.00615789
3372.89	0.00626556
3382.53	0.00664053
3392.17	0.00616897
3401.82	0.00594477
3411.46	0.00512568
3421.1	0.00444967
3430.74	0.00542501
3440.39	0.0055343
3450.03	0.00533656
3459.67	0.00455712
3469.31	0.00661441
3478.95	0.00467168
3488.6	0.00510906
3498.24	0.00495796
3507.88	0.00433044
3517.52	0.00350014
3527.17	0.00499269
3536.81	0.00256687
3546.45	0.00355677
3556.09	0.00249171
3565.74	0.00262476
3575.38	0.00286509
3585.02	0.0025298
3594.66	0.00272655
3604.3	0.00286503
3613.95	0.00290032
3623.59	0.00354213
3633.23	0.0020044
3642.87	0.00215418
3652.52	0.00145893
3662.16	0.000644923
3671.8	-0.000267097
3681.44	0.00112648
3691.09	0.00151185
3700.73	0.00117287
3710.37	0.001662
3720.01	0.000430548
3729.66	0.00168126
3739.3	0.00150735
3748.94	0.00295092
3758.58	0.00229476
3768.22	0.00150086
3777.87	0.0016633
3787.51	0.00108439
3797.15	0.0010441
3806.79	0.00174197
3816.44	0.00170654
3826.08	0.000721503
3835.72	-3.15697e-05
3845.36	0.00126135
3855.01	-0.0001368
3864.65	-0.00159772
3874.29	7.41735e-05
3883.93	-0.000311418
3893.57	-0.000469118
3903.22	-0.000595521
3912.86	-0.0014007
3922.5	-0.000443335
3932.14	0.000453354
3941.79	-0.00035001
3951.43	-0.00244036
3961.07	-0.000221552
3970.71	-0.00109643
3980.36	-0.00145214
3990	-0.000230368
3999.64	-0.00189347
