Measurement: Infrared, Infrared Data Processed
Mineral: Trolleite
Rruff sample: R050425
Ideal chemistry: Al_4_(PO_4_)_3_(OH)_3_
Locality: Halsjoberg, Varmland, Sweden
Source: Marcus Origlieri
Description: Pale green granular aggregate
Measured chemistry: (Al_3.95_Fe^3+^_0.05_)_Î£=4_(P_1.00_O_4_)_3_(OH)_3_
x	intensity
399.193	0.315034
408.835	0.359578
418.477	0.317707
428.12	0.285149
437.762	0.29933
447.404	0.305696
457.047	0.327769
466.689	0.319422
476.331	0.277069
485.974	0.239594
495.616	0.218311
505.258	0.253881
514.901	0.243815
524.543	0.205099
534.185	0.171901
543.828	0.138368
553.47	0.121084
563.112	0.121265
572.755	0.141274
582.397	0.13173
592.039	0.0994406
601.682	0.083668
611.324	0.103374
620.966	0.11542
630.609	0.0907951
640.251	0.0805128
649.893	0.091874
659.536	0.10036
669.178	0.121325
678.82	0.102726
688.463	0.0935334
698.105	0.116351
707.747	0.113868
717.39	0.0768192
727.032	0.0531771
736.674	0.0479291
746.317	0.0483559
755.959	0.0513588
765.601	0.0590727
775.244	0.071163
784.886	0.0855316
794.528	0.11423
804.171	0.153083
813.813	0.17082
823.455	0.138107
833.098	0.118874
842.74	0.135837
852.382	0.137161
862.025	0.0998777
871.667	0.0619084
881.309	0.0460109
890.952	0.0421891
900.594	0.0438062
910.236	0.0484059
919.879	0.0558708
929.521	0.0698098
939.163	0.0922642
948.806	0.12801
958.448	0.18487
968.09	0.263072
977.733	0.320776
987.375	0.279241
997.017	0.194616
1006.66	0.13452
1016.3	0.118312
1025.94	0.13386
1035.59	0.167124
1045.23	0.218634
1054.87	0.282347
1064.51	0.332626
1074.16	0.341115
1083.8	0.317447
1093.44	0.251405
1103.08	0.214602
1112.72	0.232003
1122.37	0.221195
1132.01	0.21373
1141.65	0.191638
1151.3	0.170591
1160.94	0.148554
1170.58	0.181556
1180.22	0.23907
1189.86	0.253696
1199.51	0.213738
1209.15	0.16836
1218.79	0.141969
1228.43	0.119448
1238.08	0.104839
1247.72	0.0993108
1257.36	0.0810188
1267	0.0581183
1276.64	0.037651
1286.29	0.0234013
1295.93	0.0157143
1305.57	0.0115249
1315.21	0.00938573
1324.86	0.00730246
1334.5	0.00681418
1344.14	0.00601976
1353.78	0.00560587
1363.43	0.00500876
1373.07	0.00472232
1382.71	0.00452883
1392.35	0.00455795
1401.99	0.00423764
1411.64	0.00440669
1421.28	0.00468595
1430.92	0.00473685
1440.57	0.00506449
1450.21	0.00543123
1459.85	0.00595127
1469.49	0.00565714
1479.13	0.00570311
1488.78	0.00555448
1498.42	0.00499006
1508.06	0.00555663
1517.7	0.00549114
1527.35	0.00560895
1536.99	0.00629756
1546.63	0.00579147
1556.27	0.00678267
1565.91	0.00675688
1575.56	0.00675393
1585.2	0.00777449
1594.84	0.00873643
1604.48	0.0089329
1614.13	0.0093627
1623.77	0.00928102
1633.41	0.00915475
1643.05	0.00938794
1652.7	0.00883844
1662.34	0.00889608
1671.98	0.00791334
1681.62	0.0075998
1691.27	0.0072509
1700.91	0.00683136
1710.55	0.00634828
1720.19	0.0060336
1729.84	0.00592778
1739.48	0.00548211
1749.12	0.00500298
1758.76	0.00555111
1768.4	0.00574529
1778.05	0.00558023
1787.69	0.00611182
1797.33	0.00634781
1806.97	0.00615572
1816.62	0.00548322
1826.26	0.00635268
1835.9	0.0063872
1845.54	0.00681406
1855.18	0.00563975
1864.83	0.00574759
1874.47	0.00547081
1884.11	0.00598203
1893.75	0.00611789
1903.4	0.0052266
1913.04	0.00460472
1922.68	0.00478586
1932.32	0.00433045
1941.97	0.000849462
1951.61	0.000390794
1961.25	0.000888797
1970.89	-0.000575523
1980.54	0.000597509
1990.18	0.00258261
1999.82	0.00166484
2009.46	0.00277774
2019.11	0.00456798
2028.75	0.00425463
2038.39	0.00446782
2048.03	0.00529247
2057.67	0.00536986
2067.32	0.0057757
2076.96	0.00653677
2086.6	0.00563602
2096.24	0.00628276
2105.89	0.00579547
2115.53	0.00618572
2125.17	0.00172313
2134.81	-0.00224136
2144.45	-0.00122403
2154.1	-0.00410235
2163.74	0.00711563
2173.38	0.000173567
2183.02	0.00476354
2192.67	0.00261746
2202.31	0.00419145
2211.95	0.00437898
2221.59	0.00657552
2231.24	0.00837023
2240.88	0.00591064
2250.52	0.00638279
2260.16	0.00866436
2269.8	0.0104083
2279.45	0.0101877
2289.09	0.0123666
2298.73	0.0113104
2308.38	0.0117779
2318.02	0.0113372
2327.66	0.0116192
2337.3	0.00970306
2346.94	0.0116642
2356.59	0.0105422
2366.23	0.00836155
2375.87	0.00862327
2385.51	0.00965681
2395.16	0.00845297
2404.8	0.0088201
2414.44	0.00806366
2424.08	0.00913718
2433.72	0.0101982
2443.37	0.00971296
2453.01	0.0107979
2462.65	0.012577
2472.29	0.0115403
2481.94	0.0111716
2491.58	0.0105865
2501.22	0.0111695
2510.86	0.0116309
2520.51	0.0117501
2530.15	0.0125876
2539.79	0.0130784
2549.43	0.0134033
2559.07	0.0143103
2568.72	0.0156263
2578.36	0.0141039
2588	0.0160727
2597.64	0.0166672
2607.29	0.0164495
2616.93	0.0165177
2626.57	0.0174571
2636.21	0.0183296
2645.86	0.0167495
2655.5	0.0169492
2665.14	0.0165757
2674.78	0.0172958
2684.43	0.0167009
2694.07	0.017785
2703.71	0.0175069
2713.35	0.0169244
2722.99	0.017779
2732.64	0.0187352
2742.28	0.018975
2751.92	0.0184075
2761.56	0.0188177
2771.21	0.0177279
2780.85	0.0199952
2790.49	0.0193949
2800.13	0.0191093
2809.78	0.0205467
2819.42	0.0197634
2829.06	0.0202139
2838.7	0.0211672
2848.34	0.0207708
2857.99	0.0204762
2867.63	0.0213173
2877.27	0.0219102
2886.91	0.0222516
2896.56	0.0218486
2906.2	0.0232571
2915.84	0.0233559
2925.48	0.0218766
2935.13	0.0213076
2944.77	0.0217545
2954.41	0.0239432
2964.05	0.0236365
2973.7	0.0241331
2983.34	0.0232075
2992.98	0.0236932
3002.62	0.0250454
3012.26	0.0252061
3021.91	0.0262955
3031.55	0.0255488
3041.19	0.0247346
3050.83	0.0273326
3060.48	0.0249185
3070.12	0.0277714
3079.76	0.0294021
3089.4	0.0274472
3099.05	0.0256891
3108.69	0.0290055
3118.33	0.0280361
3127.97	0.0281045
3137.61	0.0286195
3147.26	0.0281502
3156.9	0.0279931
3166.54	0.0284401
3176.18	0.0311139
3185.83	0.0322316
3195.47	0.0307369
3205.11	0.0294421
3214.75	0.0322249
3224.4	0.0320311
3234.04	0.0367985
3243.68	0.0346684
3253.32	0.035541
3262.97	0.0346608
3272.61	0.0351831
3282.25	0.0351797
3291.89	0.0378794
3301.53	0.0371364
3311.18	0.0382217
3320.82	0.0377512
3330.46	0.041347
3340.1	0.0418707
3349.75	0.0416653
3359.39	0.0437853
3369.03	0.04425
3378.67	0.0474452
3388.32	0.053095
3397.96	0.0580396
3407.6	0.0717745
3417.24	0.0953757
3426.89	0.138587
3436.53	0.0917922
3446.17	0.0409709
3455.81	0.0358356
3465.45	0.0365871
3475.1	0.0365886
3484.74	0.048469
3494.38	0.0517513
3504.02	0.0656473
3513.67	0.0839846
3523.31	0.0748853
3532.95	0.0437418
3542.59	0.0329915
3552.24	0.0308274
3561.88	0.0261631
3571.52	0.0247343
3581.16	0.024523
3590.8	0.020206
3600.45	0.0250148
3610.09	0.0249709
3619.73	0.0217943
3629.37	0.0169757
3639.02	0.0198186
3648.66	0.0229733
3658.3	0.0167671
3667.94	0.0206032
3677.59	0.0197595
3687.23	0.0199362
3696.87	0.0184245
3706.51	0.0178177
3716.16	0.0170951
3725.8	0.0200539
3735.44	0.0236675
3745.08	0.0212121
3754.72	0.0251891
3764.37	0.0217806
3774.01	0.0156097
3783.65	0.0203419
3793.29	0.020528
3802.94	0.0237837
3812.58	0.0209496
3822.22	0.0229656
3831.86	0.0240631
3841.51	0.022659
3851.15	0.0233597
3860.79	0.0223112
3870.43	0.0205434
3880.07	0.0217665
3889.72	0.0208722
3899.36	0.0275168
3909	0.0211701
3918.64	0.0211522
3928.29	0.0214816
3937.93	0.0226655
3947.57	0.0213498
3957.21	0.0213805
3966.86	0.0221207
3976.5	0.023303
3986.14	0.0220367
3995.78	0.0255387
