Measurement: Infrared, Infrared Data Processed
Mineral: Trona
Rruff sample: R050499
Ideal chemistry: Na_3_(HCO_3_)(CO_3_)2H_2_O
Locality: Searles Lake, Trona, San Bernardino County, California, USA
Source: California Institute of Technology
Description: Gray columnar massive
Measured chemistry: Na_3.00_(CO_3_)(HCO_3_)Â·2H_2_O ; CO_3_ and HCO_3_ were estimated by stoichiometry
x	intensity
395.336	0.0185195
404.978	0.0200089
414.62	0.0203427
424.263	0.0223629
433.905	0.0241793
443.547	0.0258414
453.19	0.02735
462.832	0.0287158
472.474	0.0306906
482.117	0.0325414
491.759	0.0347993
501.401	0.0368903
511.044	0.040441
520.686	0.0435431
530.328	0.0478008
539.971	0.0518204
549.613	0.0567641
559.255	0.0613551
568.898	0.0654485
578.54	0.0679732
588.182	0.0688943
597.825	0.0675086
607.467	0.0625548
617.109	0.0550395
626.752	0.0487813
636.394	0.0459159
646.036	0.0452201
655.679	0.0428893
665.321	0.0326205
674.963	0.0300917
684.606	0.026574
694.248	0.015244
703.89	0.0108767
713.533	0.0144932
723.175	0.016918
732.817	0.0181141
742.46	0.0203053
752.102	0.0226941
761.744	0.024895
771.387	0.0279548
781.029	0.0307429
790.671	0.0326487
800.314	0.0333536
809.956	0.0340405
819.598	0.0347628
829.241	0.0368532
838.883	0.0419263
848.525	0.0660419
858.168	0.0369772
867.81	0.030747
877.452	0.0305935
887.095	0.030632
896.737	0.0306393
906.379	0.0308835
916.022	0.0311631
925.664	0.0314207
935.306	0.031694
944.949	0.0322311
954.591	0.0325133
964.233	0.0330361
973.876	0.033302
983.518	0.0335959
993.16	0.0336194
1002.8	0.0335967
1012.45	0.0334767
1022.09	0.033059
1031.73	0.0323138
1041.37	0.0301256
1051.01	0.0293995
1060.66	0.0368784
1070.3	0.0363609
1079.94	0.0359549
1089.58	0.0356463
1099.23	0.0355052
1108.87	0.0355103
1118.51	0.0354688
1128.15	0.0354173
1137.8	0.0355432
1147.44	0.0360682
1157.08	0.0365414
1166.72	0.0373946
1176.37	0.0379578
1186.01	0.0377241
1195.65	0.03685
1205.29	0.0353596
1214.93	0.0338467
1224.58	0.0322124
1234.22	0.0306275
1243.86	0.0296433
1253.5	0.0285906
1263.15	0.0276187
1272.79	0.0268726
1282.43	0.0263925
1292.07	0.0256843
1301.71	0.0253442
1311.36	0.025199
1321	0.0248927
1330.64	0.0245903
1340.28	0.0244672
1349.93	0.0244379
1359.57	0.0244752
1369.21	0.0244264
1378.85	0.0246798
1388.5	0.025505
1398.14	0.0263405
1407.78	0.0277045
1417.42	0.0300507
1427.07	0.0328425
1436.71	0.0371246
1446.35	0.041288
1455.99	0.0443218
1465.63	0.042548
1475.28	0.0367878
1484.92	0.0290084
1494.56	0.0224112
1504.2	0.0181062
1513.85	0.0154977
1523.49	0.0139059
1533.13	0.0127893
1542.77	0.0119758
1552.42	0.011137
1562.06	0.0104125
1571.7	0.00958608
1581.34	0.00954757
1590.98	0.00970759
1600.63	0.0106287
1610.27	0.0120684
1619.91	0.0140425
1629.55	0.0161033
1639.2	0.0177453
1648.84	0.0197433
1658.48	0.0212091
1668.12	0.0234761
1677.77	0.0257544
1687.41	0.0271092
1697.05	0.0262223
1706.69	0.0240773
1716.34	0.0223899
1725.98	0.0200115
1735.62	0.018509
1745.26	0.0164004
1754.9	0.0145167
1764.55	0.0132232
1774.19	0.0118474
1783.83	0.0105745
1793.47	0.0101159
1803.12	0.00881844
1812.76	0.00816948
1822.4	0.00761858
1832.04	0.00713681
1841.69	0.00668028
1851.33	0.00636598
1860.97	0.00519704
1870.61	0.00536459
1880.26	0.00462732
1889.9	0.00451732
1899.54	0.00395201
1909.18	0.00398935
1918.82	0.00421909
1928.47	0.00377119
1938.11	0.00359276
1947.75	0.00308159
1957.39	0.00351404
1967.04	0.00282965
1976.68	0.00432833
1986.32	0.00350276
1995.96	0.00272487
2005.61	0.000991181
2015.25	0.00372723
2024.89	0.00269054
2034.53	0.00181781
2044.17	0.000407282
2053.82	0.00213688
2063.46	0.002173
2073.1	0.000271751
2082.74	0.000597249
2092.39	0.00129172
2102.03	0.000979934
2111.67	0.000185122
2121.31	0.000889175
2130.96	0.00145268
2140.6	0.000441146
2150.24	0.000180836
2159.88	-0.000730965
2169.53	0.000270036
2179.17	0.000748869
2188.81	-0.000573578
2198.45	-0.000421396
2208.09	-0.00111712
2217.74	-5.39942e-05
2227.38	0.000125085
2237.02	0.00093301
2246.66	0.000164782
2256.31	0.000469082
2265.95	-4.89133e-05
2275.59	0.00091945
2285.23	0.00014061
2294.88	0.000505031
2304.52	0.000304638
2314.16	0.000100828
2323.8	9.74574e-05
2333.45	0.000778096
2343.09	0.000972024
2352.73	0.000992718
2362.37	0.00140993
2372.01	0.000846118
2381.66	0.000245076
2391.3	0.000351806
2400.94	-0.000422442
2410.58	-0.000199286
2420.23	-0.000497784
2429.87	0.000424566
2439.51	-0.000247662
2449.15	-0.000762094
2458.8	0.000251506
2468.44	0.000283315
2478.08	-5.77778e-05
2487.72	0.000192318
2497.36	-4.2959e-05
2507.01	-0.000168811
2516.65	0.000248126
2526.29	0.000146335
2535.93	-0.000582221
2545.58	-0.00038489
2555.22	-0.000803272
2564.86	-0.000803089
2574.5	-0.00109735
2584.14	-0.000869723
2593.79	-0.00102075
2603.43	-0.000741495
2613.07	-0.000654946
2622.72	-0.000325034
2632.36	-0.000509325
2642	-0.000414321
2651.64	-5.71919e-05
2661.28	-7.26534e-05
2670.93	0.00022685
2680.57	0.000505132
2690.21	0.000466921
2699.85	3.787e-05
2709.5	0.000612542
2719.14	0.000605542
2728.78	0.000691377
2738.42	0.000880138
2748.07	0.00108465
2757.71	0.00102143
2767.35	0.00116874
2776.99	0.0018166
2786.63	0.00177613
2796.28	0.00210598
2805.92	0.00209482
2815.56	0.00229802
2825.2	0.00271883
2834.85	0.00303712
2844.49	0.00314527
2854.13	0.00336437
2863.77	0.00360022
2873.41	0.00370328
2883.06	0.00351676
2892.7	0.00363302
2902.34	0.00402946
2911.99	0.00443699
2921.63	0.00502888
2931.27	0.00554066
2940.91	0.00591131
2950.55	0.00671678
2960.2	0.0069129
2969.84	0.00735451
2979.48	0.00752816
2989.12	0.00819107
2998.77	0.00912396
3008.41	0.00903349
3018.05	0.0103371
3027.69	0.0103537
3037.34	0.0107945
3046.98	0.0106687
3056.62	0.0101401
3066.26	0.0102344
3075.9	0.00987017
3085.55	0.00914324
3095.19	0.00927214
3104.83	0.00857265
3114.47	0.00777469
3124.12	0.00824522
3133.76	0.0080311
3143.4	0.00779649
3153.04	0.00667254
3162.68	0.00725259
3172.33	0.00682608
3181.97	0.00698591
3191.61	0.00601958
3201.26	0.00651442
3210.9	0.00613569
3220.54	0.00581201
3230.18	0.00544081
3239.82	0.00499155
3249.47	0.00582497
3259.11	0.00447241
3268.75	0.00450527
3278.39	0.00416311
3288.04	0.00426831
3297.68	0.00379835
3307.32	0.0038992
3316.96	0.00412555
3326.61	0.00434645
3336.25	0.00407875
3345.89	0.00470032
3355.53	0.00488272
3365.17	0.00489281
3374.82	0.00618785
3384.46	0.00618973
3394.1	0.0069365
3403.74	0.00781431
3413.39	0.00938192
3423.03	0.0110531
3432.67	0.0142829
3442.31	0.0185384
3451.95	0.0211447
3461.6	0.0212264
3471.24	0.020008
3480.88	0.0161626
3490.53	0.0139195
3500.17	0.0116706
3509.81	0.00938031
3519.45	0.00685469
3529.09	0.0058031
3538.74	0.00240531
3548.38	0.00138949
3558.02	-0.000993977
3567.66	-0.00120518
3577.31	-0.00193773
3586.95	-0.00280509
3596.59	-0.00245562
3606.23	-0.00403296
3615.88	-0.00454198
3625.52	-0.00462716
3635.16	-0.00507812
3644.8	-0.00418658
3654.44	-0.00506946
3664.09	-0.00533345
3673.73	-0.0046443
3683.37	-0.00454929
3693.01	-0.00667336
3702.66	-0.00569123
3712.3	-0.00480775
3721.94	-0.00641638
3731.58	-0.00495365
3741.22	-0.0048539
3750.87	-0.00403264
3760.51	-0.00676357
3770.15	-0.00534676
3779.8	-0.00555212
3789.44	-0.00714093
3799.08	-0.00540395
3808.72	-0.00564941
3818.36	-0.00565999
3828.01	-0.00588593
3837.65	-0.00471961
3847.29	-0.00627601
3856.93	-0.00551904
3866.58	-0.00616841
3876.22	-0.00610167
3885.86	-0.00548582
3895.5	-0.00660913
3905.14	-0.00541221
3914.79	-0.00600643
3924.43	-0.00622735
3934.07	-0.00648745
3943.71	-0.0059707
3953.36	-0.00658538
3963	-0.00628823
3972.64	-0.00650389
3982.28	-0.00689148
3991.93	-0.00646685
