Measurement: Infrared, Infrared Data Processed
Mineral: Ulexite
Rruff sample: R050491
Ideal chemistry: NaCaB_5_O_6_(OH)_6_5H_2_O
Locality: Open Pit mine, Boron, Kern County, California, USA
Source: California Institute of Technology
Description: Colorless fragment
x	intensity
374.123	0.087544
383.765	0.0861848
393.407	0.0901087
403.05	0.106587
412.692	0.111922
422.334	0.122687
431.976	0.106998
441.619	0.124939
451.261	0.109817
460.904	0.096722
470.546	0.112708
480.188	0.112206
489.83	0.113697
499.473	0.117168
509.115	0.119042
518.758	0.125122
528.4	0.137015
538.042	0.138299
547.684	0.124411
557.327	0.112616
566.969	0.105549
576.611	0.103709
586.254	0.107662
595.896	0.110273
605.538	0.114803
615.181	0.111883
624.823	0.110425
634.466	0.119582
644.108	0.124566
653.75	0.115146
663.393	0.103986
673.035	0.100994
682.677	0.103198
692.319	0.106044
701.962	0.120541
711.604	0.143763
721.246	0.118707
730.889	0.100309
740.531	0.111815
750.173	0.102342
759.816	0.0712383
769.458	0.0635219
779.101	0.0637633
788.743	0.0679883
798.385	0.0758501
808.028	0.0920311
817.67	0.130352
827.312	0.169057
836.955	0.178965
846.597	0.220702
856.239	0.265419
865.881	0.208174
875.524	0.148508
885.166	0.108503
894.808	0.0947706
904.451	0.103928
914.093	0.121288
923.736	0.133062
933.378	0.126864
943.02	0.141927
952.663	0.180756
962.305	0.203021
971.947	0.248765
981.59	0.242915
991.232	0.238937
1000.87	0.237136
1010.52	0.198919
1020.16	0.160708
1029.8	0.163676
1039.44	0.198175
1049.09	0.223013
1058.73	0.212531
1068.37	0.187773
1078.01	0.17177
1087.65	0.168236
1097.3	0.166138
1106.94	0.153224
1116.58	0.12727
1126.22	0.106136
1135.87	0.0930563
1145.51	0.0798185
1155.15	0.0671042
1164.79	0.0606151
1174.44	0.0629677
1184.08	0.0746023
1193.72	0.0857538
1203.36	0.0966785
1213.01	0.10385
1222.65	0.0760545
1232.29	0.0611826
1241.93	0.0517349
1251.58	0.0453718
1261.22	0.0442824
1270.86	0.0488556
1280.5	0.057916
1290.14	0.0707016
1299.79	0.0928456
1309.43	0.153312
1319.07	0.175076
1328.71	0.138119
1338.36	0.115264
1348	0.125232
1357.64	0.135563
1367.28	0.109091
1376.92	0.0973608
1386.57	0.120522
1396.21	0.1232
1405.85	0.126845
1415.49	0.131566
1425.14	0.11154
1434.78	0.079313
1444.42	0.0550988
1454.06	0.0431566
1463.71	0.0373453
1473.35	0.038265
1482.99	0.0293603
1492.63	0.017825
1502.28	0.0133863
1511.92	0.0111821
1521.56	0.0103557
1531.2	0.0101265
1540.85	0.0103259
1550.49	0.010671
1560.13	0.0116923
1569.77	0.0127073
1579.41	0.0137885
1589.06	0.0154889
1598.7	0.0183464
1608.34	0.0217794
1617.98	0.0268894
1627.63	0.0319941
1637.27	0.0279739
1646.91	0.0230092
1656.55	0.0235676
1666.19	0.0253058
1675.84	0.0194365
1685.48	0.0150118
1695.12	0.0135237
1704.77	0.0116744
1714.41	0.00963855
1724.05	0.00795326
1733.69	0.00718646
1743.33	0.00569583
1752.98	0.00531894
1762.62	0.00525995
1772.26	0.00515783
1781.9	0.00536326
1791.55	0.00515812
1801.19	0.00510563
1810.83	0.00560503
1820.47	0.0057256
1830.12	0.00571448
1839.76	0.00548648
1849.4	0.00553897
1859.04	0.00565287
1868.68	0.00573949
1878.33	0.00580365
1887.97	0.00572662
1897.61	0.00632648
1907.25	0.00592482
1916.9	0.00556157
1926.54	0.00548467
1936.18	0.00478416
1945.82	0.00434184
1955.46	0.00437445
1965.11	0.00525836
1974.75	0.00355008
1984.39	0.00578808
1994.04	0.00570607
2003.68	0.00443718
2013.32	0.00652054
2022.96	0.00567245
2032.6	0.00814618
2042.25	0.00831139
2051.89	0.00787933
2061.53	0.00758253
2071.17	0.00750804
2080.82	0.00758458
2090.46	0.00758885
2100.1	0.00835294
2109.74	0.00799552
2119.39	0.00772832
2129.03	0.00755796
2138.67	0.00750698
2148.31	0.00771265
2157.95	0.00816507
2167.6	0.00908779
2177.24	0.00909377
2186.88	0.00864851
2196.52	0.0095236
2206.17	0.00900628
2215.81	0.00943366
2225.45	0.00892792
2235.09	0.0095453
2244.74	0.00960859
2254.38	0.0103413
2264.02	0.0105916
2273.66	0.0120283
2283.3	0.0121548
2292.95	0.0119891
2302.59	0.0123862
2312.23	0.0125167
2321.87	0.0134446
2331.52	0.0133737
2341.16	0.0133044
2350.8	0.0141291
2360.44	0.0142427
2370.09	0.0150922
2379.73	0.0155215
2389.37	0.0157757
2399.01	0.0152948
2408.66	0.0147472
2418.3	0.0147932
2427.94	0.0150081
2437.58	0.0158648
2447.22	0.0163176
2456.87	0.0165219
2466.51	0.0172912
2476.15	0.0178761
2485.79	0.0180143
2495.44	0.018393
2505.08	0.0181736
2514.72	0.0178715
2524.36	0.017594
2534.01	0.0166208
2543.65	0.0161442
2553.29	0.0147159
2562.93	0.0140031
2572.57	0.0136198
2582.22	0.013401
2591.86	0.0131678
2601.5	0.0135683
2611.14	0.0141367
2620.79	0.0140799
2630.43	0.0140093
2640.07	0.0149759
2649.71	0.0158446
2659.36	0.0163256
2669	0.0166536
2678.64	0.0165802
2688.28	0.0163643
2697.93	0.0159474
2707.57	0.0161589
2717.21	0.0164037
2726.85	0.0169542
2736.49	0.0174241
2746.14	0.0180214
2755.78	0.018708
2765.42	0.0192121
2775.06	0.0197683
2784.71	0.0204223
2794.35	0.0209831
2803.99	0.0216321
2813.63	0.0224367
2823.28	0.0229189
2832.92	0.0236534
2842.56	0.0238387
2852.2	0.0233067
2861.84	0.0252133
2871.49	0.0264972
2881.13	0.0275562
2890.77	0.0285734
2900.41	0.0295485
2910.06	0.0297823
2919.7	0.0295013
2929.34	0.0319065
2938.98	0.0328641
2948.62	0.0337079
2958.27	0.0348053
2967.91	0.0352079
2977.55	0.0362635
2987.2	0.0368571
2996.84	0.0386667
3006.48	0.040226
3016.12	0.0400552
3025.76	0.0438714
3035.41	0.0460991
3045.05	0.0489516
3054.69	0.0520602
3064.33	0.0558699
3073.98	0.0614239
3083.62	0.0671543
3093.26	0.0763077
3102.9	0.0879293
3112.55	0.100201
3122.19	0.108665
3131.83	0.108386
3141.47	0.103038
3151.11	0.0992663
3160.76	0.097778
3170.4	0.0975866
3180.04	0.0999258
3189.68	0.101614
3199.33	0.104859
3208.97	0.107646
3218.61	0.10736
3228.25	0.10549
3237.9	0.103603
3247.54	0.101335
3257.18	0.100523
3266.82	0.101258
3276.47	0.102936
3286.11	0.104688
3295.75	0.105786
3305.39	0.105176
3315.03	0.102911
3324.68	0.100653
3334.32	0.0999728
3343.96	0.100405
3353.6	0.102854
3363.25	0.104639
3372.89	0.106734
3382.53	0.111146
3392.17	0.117068
3401.82	0.12504
3411.46	0.131579
3421.1	0.130757
3430.74	0.121458
3440.39	0.111742
3450.03	0.106663
3459.67	0.0996977
3469.31	0.0943145
3478.95	0.0913368
3488.6	0.0899082
3498.24	0.0894581
3507.88	0.088425
3517.52	0.0885314
3527.17	0.0816761
3536.81	0.0680592
3546.45	0.0562307
3556.09	0.0504973
3565.74	0.0528185
3575.38	0.056704
3585.02	0.0739724
3594.66	0.104772
3604.3	0.0586214
3613.95	0.0269307
3623.59	0.0155224
3633.23	0.0116994
3642.87	0.00702368
3652.52	0.00331466
3662.16	0.00198675
3671.8	0.000742158
3681.44	0.00101416
3691.09	-5.45115e-05
3700.73	-0.00081115
3710.37	-0.000569752
3720.01	-0.000511024
3729.66	-0.000511896
3739.3	-0.000621519
3748.94	-0.000543839
3758.58	-0.00122946
3768.22	0.000332838
3777.87	0.000290979
3787.51	-0.000139625
3797.15	0.00109839
3806.79	0.000366534
3816.44	0.00018816
3826.08	0.000414652
3835.72	0.000462545
3845.36	3.49677e-05
3855.01	0.000844428
3864.65	0.00118888
3874.29	0.00148964
3883.93	0.000964955
3893.57	0.00153791
3903.22	0.000968264
3912.86	0.00178049
3922.5	0.00196307
3932.14	0.00177089
3941.79	0.0013566
3951.43	0.000885373
3961.07	0.00282867
3970.71	0.00284898
3980.36	0.00237881
3990	0.00360541
3999.64	0.00336065
