Measurement: Infrared, Infrared Data Processed
Mineral: Ullmannite
Rruff sample: R050247
Ideal chemistry: NiSbS
Locality: Salchendorf, Siegerland, North Rhine-Westphalia, Germany
Source: Marcus Origlieri
Description: Steel gray massive
Measured chemistry: Ni_1.00_(Sb_0.78_As_0.22_)S_1.00_
x	intensity
50.1401	0.0242671
52.0686	0.0254387
53.9971	0.0277691
55.9255	0.0227363
57.854	0.0235078
59.7825	0.0228668
61.7109	0.0212871
63.6394	0.0209279
65.5679	0.0211365
67.4963	0.0236755
69.4248	0.0250158
71.3533	0.0263155
73.2817	0.0263308
75.2102	0.0259239
77.1387	0.026758
79.0671	0.0286761
80.9956	0.0309797
82.9241	0.0303744
84.8525	0.0301884
86.781	0.0308438
88.7095	0.0312488
90.6379	0.0316624
92.5664	0.0316002
94.4948	0.032495
96.4233	0.0334769
98.3518	0.0347379
100.28	0.0354983
102.209	0.0360913
104.137	0.0369448
106.066	0.0383856
107.994	0.039195
109.923	0.0390048
111.851	0.0392721
113.779	0.039892
115.708	0.0406634
117.636	0.0412721
119.565	0.0418716
121.493	0.0429257
123.422	0.0431171
125.35	0.0445168
127.279	0.0460843
129.207	0.0472566
131.136	0.0485289
133.064	0.0496216
134.993	0.0507299
136.921	0.0510881
138.85	0.0515033
140.778	0.052801
142.707	0.0538845
144.635	0.0539524
146.563	0.0539345
148.492	0.0550089
150.42	0.0554991
152.349	0.0565654
154.277	0.0578119
156.206	0.0590106
158.134	0.0600489
160.063	0.0603433
161.991	0.0599345
163.92	0.0604467
165.848	0.0615918
167.777	0.0622796
169.705	0.062017
171.633	0.0622463
173.562	0.0633428
175.49	0.0639644
177.419	0.0646971
179.347	0.0655501
181.276	0.0656947
183.204	0.0660692
185.133	0.0663554
187.061	0.0665345
188.99	0.0666565
190.918	0.0668938
192.847	0.0678487
194.775	0.068954
196.704	0.0695534
198.632	0.069855
200.56	0.0703908
202.489	0.0711322
204.417	0.0716169
206.346	0.072122
208.274	0.0723359
210.203	0.0727592
212.131	0.0734038
214.06	0.0737696
215.988	0.0745089
217.917	0.07479
219.845	0.0745141
221.774	0.075256
223.702	0.0763438
225.631	0.0767026
227.559	0.0768978
229.488	0.0773671
231.416	0.0779742
233.344	0.0783513
235.273	0.0785673
237.201	0.0792077
239.13	0.0798231
241.058	0.080592
242.987	0.0810456
244.915	0.0814025
246.844	0.0818621
248.772	0.0824692
250.701	0.0829067
252.629	0.0835501
254.558	0.0845656
256.486	0.0850079
258.414	0.0850678
260.343	0.0857573
262.271	0.0863304
264.2	0.0867419
266.128	0.0874589
268.057	0.0882147
269.985	0.0889025
271.914	0.0895095
273.842	0.0898733
275.771	0.0906448
277.699	0.0912807
279.628	0.0913001
281.556	0.0919185
283.485	0.0933094
285.413	0.0938765
287.341	0.0941772
289.27	0.0948831
291.198	0.0955829
293.127	0.0962733
295.055	0.096751
296.984	0.0973077
298.912	0.0977892
300.841	0.0985718
302.769	0.0992863
304.698	0.0998168
306.626	0.100256
308.555	0.100587
310.483	0.100836
312.411	0.101397
314.34	0.102289
316.269	0.102846
318.197	0.10331
320.125	0.103755
322.054	0.104423
323.982	0.105059
325.911	0.105582
327.839	0.106071
329.768	0.106281
331.696	0.106858
333.625	0.107707
335.553	0.108262
337.482	0.108609
339.41	0.109167
341.339	0.109852
343.267	0.11067
345.195	0.111344
347.124	0.111621
349.052	0.112477
350.981	0.113335
352.909	0.113869
354.838	0.114364
356.766	0.114725
358.695	0.115352
360.623	0.115662
362.552	0.115672
364.48	0.116045
366.409	0.116921
368.337	0.117311
370.265	0.117125
372.194	0.117423
374.122	0.117779
376.051	0.117729
377.979	0.117611
379.908	0.118058
381.836	0.118633
383.765	0.119194
385.693	0.119782
387.622	0.120439
389.55	0.121139
391.479	0.121634
393.407	0.121806
395.336	0.122096
397.264	0.12164
399.192	0.121189
401.121	0.120778
403.049	0.120858
404.978	0.121993
406.906	0.12302
408.835	0.124172
410.763	0.125428
412.692	0.12625
414.62	0.12723
416.549	0.128534
418.477	0.129585
420.406	0.13015
422.334	0.130729
424.262	0.131774
426.191	0.132688
428.12	0.133394
430.048	0.134172
431.976	0.134538
433.905	0.135094
435.833	0.135974
437.762	0.136717
439.69	0.136941
441.619	0.137271
443.547	0.137749
445.476	0.138024
447.404	0.137712
449.333	0.137257
451.261	0.137157
453.19	0.137318
455.118	0.137524
457.046	0.138333
458.975	0.13881
460.903	0.138973
462.832	0.138952
464.76	0.138579
466.689	0.138449
468.617	0.138703
470.546	0.138847
472.474	0.139327
474.403	0.139843
476.331	0.140273
478.26	0.140806
480.188	0.140778
482.116	0.140666
484.045	0.140982
485.974	0.141582
487.902	0.142224
489.83	0.142836
491.759	0.143008
493.687	0.143089
495.616	0.143662
497.544	0.144062
499.473	0.144366
501.401	0.144555
503.33	0.144897
505.258	0.14523
507.187	0.145501
509.115	0.145978
511.043	0.14586
512.972	0.145559
514.9	0.145499
516.829	0.146239
518.757	0.146774
520.686	0.146838
522.614	0.14652
524.543	0.146243
526.471	0.146642
528.4	0.147189
530.328	0.147395
532.257	0.146964
534.185	0.146878
536.114	0.14749
538.042	0.14763
539.971	0.148293
541.899	0.148812
543.827	0.149259
545.756	0.15
547.684	0.150238
549.613	0.150645
551.541	0.151545
553.47	0.151678
555.398	0.152447
557.327	0.153788
559.255	0.154629
561.184	0.15538
563.112	0.156051
565.041	0.156772
566.969	0.157053
568.898	0.157465
570.826	0.158477
572.755	0.159588
574.683	0.160382
576.611	0.161183
578.54	0.161661
580.468	0.162142
582.397	0.162746
584.325	0.163624
586.254	0.164735
588.182	0.165851
590.111	0.166551
592.039	0.167285
593.968	0.167802
595.896	0.16827
597.824	0.169044
599.753	0.169753
601.682	0.170726
603.61	0.171799
605.538	0.171942
607.467	0.172167
609.395	0.17274
611.324	0.1733
613.252	0.173922
615.181	0.174994
617.109	0.175506
619.038	0.175804
620.966	0.176105
622.894	0.176272
624.823	0.176676
626.751	0.177227
628.68	0.177655
630.608	0.178198
632.537	0.17901
634.465	0.179384
636.394	0.179615
638.322	0.180183
640.251	0.180859
642.179	0.181365
644.108	0.181898
646.036	0.182389
647.965	0.183014
649.893	0.183265
651.822	0.183804
653.75	0.184512
655.678	0.184735
657.607	0.185441
659.535	0.186225
661.464	0.186728
663.392	0.187078
665.321	0.187848
667.249	0.188452
669.178	0.189036
671.106	0.190036
673.035	0.191186
674.963	0.191601
676.892	0.192127
678.82	0.193374
680.749	0.194443
682.677	0.194
684.606	0.193622
686.534	0.194828
688.462	0.196654
690.391	0.197288
692.319	0.198294
694.248	0.198213
696.176	0.197074
698.105	0.195897
700.033	0.196739
