Measurement: Infrared, Infrared Data Processed
Mineral: Vanadinite
Rruff sample: R050189
Ideal chemistry: Pb^2+^_5_(V^5+^O_4_)_3_Cl
Locality: Puzzler mine, Yuma County, Arizona, USA
Source: Dave Bunk Minerals
Description: Red and green hexagonal prisms
Measured chemistry: Pb_5.00_(V_1.00_O_4_)_3_Cl_1.00_
x	intensity
374.123	0.282302
383.765	0.215826
393.407	0.179614
403.05	0.177846
412.692	0.194123
422.334	0.177946
431.976	0.164422
441.619	0.186241
451.261	0.206995
460.904	0.229197
470.546	0.246364
480.188	0.260139
489.83	0.274689
499.473	0.294896
509.115	0.31109
518.758	0.32428
528.4	0.339858
538.042	0.360967
547.684	0.362685
557.327	0.381672
566.969	0.388586
576.611	0.400197
586.254	0.415543
595.896	0.43121
605.538	0.44642
615.181	0.463988
624.823	0.482086
634.466	0.501164
644.108	0.519541
653.75	0.537341
663.393	0.552273
673.035	0.566421
682.677	0.575176
692.319	0.584081
701.962	0.587461
711.604	0.573047
721.246	0.534698
730.889	0.478407
740.531	0.419631
750.173	0.366887
759.816	0.338413
769.458	0.341465
779.101	0.36917
788.743	0.392955
798.385	0.373069
808.028	0.302841
817.67	0.246082
827.312	0.222418
836.955	0.184496
846.597	0.138759
856.239	0.097429
865.881	0.0648456
875.524	0.0463589
885.166	0.0341756
894.808	0.0268127
904.451	0.0223995
914.093	0.0200321
923.736	0.0201287
933.378	0.0211351
943.02	0.0272383
952.663	0.0419217
962.305	0.0407291
971.947	0.0383436
981.59	0.0402639
991.232	0.0422638
1000.87	0.0478021
1010.52	0.0412655
1020.16	0.0366508
1029.8	0.0362789
1039.44	0.0381292
1049.09	0.0395153
1058.73	0.0410155
1068.37	0.0438372
1078.01	0.0470701
1087.65	0.0500959
1097.3	0.053033
1106.94	0.0556964
1116.58	0.0586087
1126.22	0.0605401
1135.87	0.0637573
1145.51	0.0661403
1155.15	0.0687521
1164.79	0.0711493
1174.44	0.073772
1184.08	0.076697
1193.72	0.0798362
1203.36	0.0825117
1213.01	0.0854791
1222.65	0.0886703
1232.29	0.0922226
1241.93	0.0955099
1251.58	0.0994973
1261.22	0.103473
1270.86	0.108383
1280.5	0.113283
1290.14	0.114821
1299.79	0.117848
1309.43	0.121412
1319.07	0.124067
1328.71	0.126633
1338.36	0.130127
1348	0.133698
1357.64	0.137736
1367.28	0.142182
1376.92	0.147398
1386.57	0.151893
1396.21	0.156042
1405.85	0.159831
1415.49	0.163534
1425.14	0.167423
1434.78	0.170656
1444.42	0.172735
1454.06	0.1748
1463.71	0.17558
1473.35	0.175331
1482.99	0.175628
1492.63	0.177249
1502.28	0.179361
1511.92	0.181538
1521.56	0.184138
1531.2	0.185277
1540.85	0.186926
1550.49	0.187144
1560.13	0.188062
1569.77	0.188755
1579.41	0.189918
1589.06	0.190884
1598.7	0.191774
1608.34	0.192895
1617.98	0.194855
1627.63	0.196514
1637.27	0.198383
1646.91	0.200138
1656.55	0.201452
1666.19	0.20245
1675.84	0.20394
1685.48	0.205219
1695.12	0.207029
1704.77	0.208185
1714.41	0.209971
1724.05	0.213415
1733.69	0.215625
1743.33	0.214864
1752.98	0.216202
1762.62	0.217781
1772.26	0.220302
1781.9	0.22199
1791.55	0.223849
1801.19	0.225435
1810.83	0.226974
1820.47	0.229178
1830.12	0.230485
1839.76	0.232187
1849.4	0.234624
1859.04	0.236545
1868.68	0.238173
1878.33	0.239771
1887.97	0.241171
1897.61	0.241516
1907.25	0.244187
1916.9	0.244786
1926.54	0.246904
1936.18	0.24835
1945.82	0.249275
1955.46	0.250475
1965.11	0.250791
1974.75	0.251709
1984.39	0.256439
1994.04	0.257156
2003.68	0.257119
2013.32	0.257494
2022.96	0.258389
2032.6	0.260141
2042.25	0.262526
2051.89	0.265292
2061.53	0.267348
2071.17	0.268935
2080.82	0.271473
2090.46	0.272299
2100.1	0.272801
2109.74	0.275263
2119.39	0.276041
2129.03	0.275343
2138.67	0.277671
2148.31	0.275675
2157.95	0.272438
2167.6	0.28025
2177.24	0.282482
2186.88	0.283381
2196.52	0.284647
2206.17	0.285735
2215.81	0.287512
2225.45	0.289106
2235.09	0.292455
2244.74	0.294103
2254.38	0.294003
2264.02	0.294912
2273.66	0.297718
2283.3	0.298923
2292.95	0.300089
2302.59	0.300832
2312.23	0.301685
2321.87	0.303868
2331.52	0.304032
2341.16	0.305681
2350.8	0.305891
2360.44	0.307988
2370.09	0.308387
2379.73	0.309056
2389.37	0.310039
2399.01	0.311665
2408.66	0.312991
2418.3	0.313801
2427.94	0.315473
2437.58	0.317117
2447.22	0.316936
2456.87	0.318842
2466.51	0.320108
2476.15	0.320375
2485.79	0.322215
2495.44	0.321801
2505.08	0.324378
2514.72	0.325013
2524.36	0.325438
2534.01	0.327184
2543.65	0.3276
2553.29	0.329394
2562.93	0.330665
2572.57	0.331376
2582.22	0.331767
2591.86	0.333566
2601.5	0.334737
2611.14	0.335303
2620.79	0.33658
2630.43	0.338637
2640.07	0.339026
2649.71	0.340348
2659.36	0.340644
2669	0.342103
2678.64	0.343106
2688.28	0.343653
2697.93	0.345092
2707.57	0.346311
2717.21	0.347384
2726.85	0.348371
2736.49	0.350206
2746.14	0.350208
2755.78	0.351417
2765.42	0.352341
2775.06	0.35383
2784.71	0.354618
2794.35	0.356239
2803.99	0.35675
2813.63	0.358291
2823.28	0.35974
2832.92	0.361439
2842.56	0.363918
2852.2	0.366343
2861.84	0.365578
2871.49	0.366412
2881.13	0.367523
2890.77	0.369498
2900.41	0.371096
2910.06	0.373607
2919.7	0.376499
2929.34	0.375168
2938.98	0.373566
2948.62	0.374091
2958.27	0.374915
2967.91	0.372806
2977.55	0.371438
2987.2	0.37291
2996.84	0.373224
3006.48	0.374469
3016.12	0.375319
3025.76	0.37639
3035.41	0.377079
3045.05	0.378353
3054.69	0.378995
3064.33	0.380362
3073.98	0.380868
3083.62	0.382269
3093.26	0.383457
3102.9	0.384848
3112.55	0.385375
3122.19	0.386911
3131.83	0.386449
3141.47	0.388309
3151.11	0.389808
3160.76	0.390583
3170.4	0.391996
3180.04	0.393222
3189.68	0.393968
3199.33	0.39472
3208.97	0.395461
3218.61	0.395791
3228.25	0.397396
3237.9	0.39923
3247.54	0.398546
3257.18	0.400534
3266.82	0.402101
3276.47	0.402463
3286.11	0.403629
3295.75	0.404883
3305.39	0.405469
3315.03	0.408202
3324.68	0.407727
3334.32	0.408792
3343.96	0.410684
3353.6	0.410786
3363.25	0.411935
3372.89	0.412365
3382.53	0.413216
3392.17	0.412257
3401.82	0.414803
3411.46	0.41537
3421.1	0.41632
3430.74	0.417465
3440.39	0.417911
3450.03	0.418481
3459.67	0.420556
3469.31	0.421589
3478.95	0.421053
3488.6	0.422189
3498.24	0.421883
3507.88	0.424228
3517.52	0.424054
3527.17	0.424854
3536.81	0.426067
3546.45	0.425586
3556.09	0.426638
3565.74	0.427905
3575.38	0.428074
3585.02	0.430057
3594.66	0.429772
3604.3	0.430816
3613.95	0.432806
3623.59	0.43311
3633.23	0.433731
3642.87	0.433918
3652.52	0.435061
3662.16	0.435823
3671.8	0.437711
3681.44	0.436433
3691.09	0.438836
3700.73	0.440628
3710.37	0.441383
3720.01	0.441868
3729.66	0.442696
3739.3	0.443888
3748.94	0.445344
3758.58	0.446595
3768.22	0.447044
3777.87	0.447519
3787.51	0.44837
3797.15	0.448663
3806.79	0.450899
3816.44	0.449893
3826.08	0.451812
3835.72	0.451641
3845.36	0.45276
3855.01	0.453922
3864.65	0.454181
3874.29	0.454987
3883.93	0.45636
3893.57	0.457615
3903.22	0.458264
3912.86	0.458865
3922.5	0.460057
3932.14	0.46185
3941.79	0.460224
3951.43	0.461937
3961.07	0.464403
3970.71	0.464741
3980.36	0.464857
3990	0.467618
3999.64	0.467084
