Measurement: Infrared, Infrared Data Processed
Mineral: Vanuralite
Rruff sample: R050544
Ideal chemistry: Al(U^6+^O_2_)_2_(V^5+^O_4_)_2_(OH)8.5H_2_O
Locality: Mounana mine, Franceville, Haut-Ogoou√©, Gabon
Source: University of Arizona Mineral Museum
Description: Yellowish-green branching aggregates
x	intensity
399.193	0.63166
408.835	0.616041
418.477	0.664685
428.12	0.697642
437.762	0.72294
447.404	0.738679
457.047	0.7383
466.689	0.700989
476.331	0.642749
485.974	0.587974
495.616	0.544507
505.258	0.515623
514.901	0.501194
524.543	0.509403
534.185	0.534389
543.828	0.560451
553.47	0.555129
563.112	0.539117
572.755	0.52901
582.397	0.500382
592.039	0.449012
601.682	0.410401
611.324	0.383201
620.966	0.368816
630.609	0.353892
640.251	0.329628
649.893	0.310162
659.536	0.289836
669.178	0.271066
678.82	0.255888
688.463	0.244166
698.105	0.238988
707.747	0.238913
717.39	0.246882
727.032	0.258021
736.674	0.260503
746.317	0.246095
755.959	0.225618
765.601	0.21347
775.244	0.208918
784.886	0.207967
794.528	0.207789
804.171	0.204488
813.813	0.196526
823.455	0.186957
833.098	0.18482
842.74	0.186592
852.382	0.192679
862.025	0.198754
871.667	0.207141
881.309	0.207658
890.952	0.192858
900.594	0.172066
910.236	0.166529
919.879	0.163156
929.521	0.156277
939.163	0.146283
948.806	0.137242
958.448	0.133113
968.09	0.134214
977.733	0.125203
987.375	0.0955687
997.017	0.0634285
1006.66	0.0433913
1016.3	0.0352799
1025.94	0.0336256
1035.59	0.0311276
1045.23	0.0292513
1054.87	0.0277739
1064.51	0.0258748
1074.16	0.0251015
1083.8	0.0249862
1093.44	0.0243249
1103.08	0.0241243
1112.72	0.0229955
1122.37	0.0228356
1132.01	0.0223646
1141.65	0.020368
1151.3	0.0184949
1160.94	0.0169512
1170.58	0.0162433
1180.22	0.0162272
1189.86	0.0168589
1199.51	0.0171713
1209.15	0.0177596
1218.79	0.0205443
1228.43	0.0265134
1238.08	0.0315121
1247.72	0.0330429
1257.36	0.0319387
1267	0.0293238
1276.64	0.0260337
1286.29	0.0231759
1295.93	0.0206837
1305.57	0.0180487
1315.21	0.0166841
1324.86	0.0162683
1334.5	0.0155546
1344.14	0.0162576
1353.78	0.0181287
1363.43	0.0223092
1373.07	0.0274063
1382.71	0.0253074
1392.35	0.0240641
1401.99	0.0270788
1411.64	0.0330669
1421.28	0.036764
1430.92	0.0338234
1440.57	0.0273886
1450.21	0.0225455
1459.85	0.0188165
1469.49	0.0182432
1479.13	0.0191633
1488.78	0.018712
1498.42	0.01883
1508.06	0.019274
1517.7	0.0202512
1527.35	0.0219115
1536.99	0.0232534
1546.63	0.0248273
1556.27	0.0266706
1565.91	0.0290169
1575.56	0.0315044
1585.2	0.0359851
1594.84	0.0423866
1604.48	0.0510534
1614.13	0.0587469
1623.77	0.0609069
1633.41	0.057657
1643.05	0.0523821
1652.7	0.0466586
1662.34	0.0403573
1671.98	0.0355185
1681.62	0.0312586
1691.27	0.0291411
1700.91	0.0269975
1710.55	0.0240368
1720.19	0.0240269
1729.84	0.0260275
1739.48	0.0231205
1749.12	0.0166391
1758.76	0.011642
1768.4	0.0109879
1778.05	0.0109149
1787.69	0.0111068
1797.33	0.0105193
1806.97	0.0101733
1816.62	0.0105573
1826.26	0.0107324
1835.9	0.0102128
1845.54	0.0105636
1855.18	0.010364
1864.83	0.00999378
1874.47	0.0103297
1884.11	0.0101003
1893.75	0.0106141
1903.4	0.0111139
1913.04	0.0107083
1922.68	0.0103765
1932.32	0.0100379
1941.97	0.00970653
1951.61	0.00997863
1961.25	0.00942976
1970.89	0.0103712
1980.54	0.0122409
1990.18	0.0112808
1999.82	0.0103244
2009.46	0.012226
2019.11	0.0106912
2028.75	0.0104113
2038.39	0.0135894
2048.03	0.0131611
2057.67	0.0112609
2067.32	0.0126098
2076.96	0.0133293
2086.6	0.0116487
2096.24	0.0118745
2105.89	0.0124597
2115.53	0.0125669
2125.17	0.0115509
2134.81	0.0107356
2144.45	0.0124403
2154.1	0.0131507
2163.74	0.0134735
2173.38	0.0121707
2183.02	0.0142119
2192.67	0.0115688
2202.31	0.0127531
2211.95	0.0117657
2221.59	0.0123121
2231.24	0.0124892
2240.88	0.0133924
2250.52	0.0142616
2260.16	0.0139694
2269.8	0.014534
2279.45	0.0151337
2289.09	0.015292
2298.73	0.0154336
2308.38	0.0154249
2318.02	0.0156437
2327.66	0.0153091
2337.3	0.0159352
2346.94	0.01586
2356.59	0.015757
2366.23	0.015554
2375.87	0.0161436
2385.51	0.0164871
2395.16	0.0166062
2404.8	0.0170192
2414.44	0.0175419
2424.08	0.0168597
2433.72	0.0177864
2443.37	0.017748
2453.01	0.0181771
2462.65	0.0179228
2472.29	0.0175124
2481.94	0.017941
2491.58	0.0181072
2501.22	0.0180665
2510.86	0.0175715
2520.51	0.0177719
2530.15	0.018462
2539.79	0.0180606
2549.43	0.0180854
2559.07	0.0187834
2568.72	0.018496
2578.36	0.0190265
2588	0.0187621
2597.64	0.0194123
2607.29	0.0198114
2616.93	0.0197922
2626.57	0.0202685
2636.21	0.0212401
2645.86	0.0210914
2655.5	0.0215635
2665.14	0.0216724
2674.78	0.0216081
2684.43	0.0221267
2694.07	0.0230316
2703.71	0.0232204
2713.35	0.0244487
2722.99	0.0249697
2732.64	0.0256117
2742.28	0.025337
2751.92	0.0272484
2761.56	0.027669
2771.21	0.0282421
2780.85	0.0301171
2790.49	0.0300745
2800.13	0.0312743
2809.78	0.0323409
2819.42	0.032736
2829.06	0.0334741
2838.7	0.0345262
2848.34	0.0338016
2857.99	0.0355556
2867.63	0.036619
2877.27	0.0376551
2886.91	0.038516
2896.56	0.0397773
2906.2	0.0407987
2915.84	0.0420958
2925.48	0.0428105
2935.13	0.0455894
2944.77	0.0456686
2954.41	0.0463365
2964.05	0.049006
2973.7	0.0487122
2983.34	0.0505187
2992.98	0.0517676
3002.62	0.0530581
3012.26	0.0533331
3021.91	0.0557357
3031.55	0.0552163
3041.19	0.0570027
3050.83	0.0572702
3060.48	0.0585153
3070.12	0.0580324
3079.76	0.0602323
3089.4	0.061976
3099.05	0.0613327
3108.69	0.061781
3118.33	0.0633213
3127.97	0.065188
3137.61	0.0650507
3147.26	0.0666642
3156.9	0.06696
3166.54	0.0673122
3176.18	0.0679297
3185.83	0.0692022
3195.47	0.0683816
3205.11	0.0688061
3214.75	0.0685581
3224.4	0.0679398
3234.04	0.068412
3243.68	0.0677122
3253.32	0.067644
3262.97	0.0676717
3272.61	0.0660821
3282.25	0.0670435
3291.89	0.0663636
3301.53	0.0662633
3311.18	0.0667962
3320.82	0.0672008
3330.46	0.0669818
3340.1	0.0674265
3349.75	0.0680036
3359.39	0.0681058
3369.03	0.0678808
3378.67	0.0675325
3388.32	0.0675967
3397.96	0.0676665
3407.6	0.0677039
3417.24	0.0665086
3426.89	0.0656232
3436.53	0.065408
3446.17	0.063519
3455.81	0.0635493
3465.45	0.0629646
3475.1	0.0610232
3484.74	0.061324
3494.38	0.0580263
3504.02	0.0576948
3513.67	0.0557891
3523.31	0.0533439
3532.95	0.0520606
3542.59	0.0478709
3552.24	0.0464592
3561.88	0.0438634
3571.52	0.0406309
3581.16	0.0381403
3590.8	0.0338977
3600.45	0.0303845
3610.09	0.0264298
3619.73	0.0227854
3629.37	0.0194344
3639.02	0.0159008
3648.66	0.0128753
3658.3	0.00999477
3667.94	0.008864
3677.59	0.00777345
3687.23	0.00581391
3696.87	0.00549085
3706.51	0.00596142
3716.16	0.00539734
3725.8	0.00539606
3735.44	0.00697378
3745.08	0.00594869
3754.72	0.00542226
3764.37	0.00575827
3774.01	0.00444942
3783.65	0.00644407
3793.29	0.00549917
3802.94	0.00454497
3812.58	0.00524559
3822.22	0.00525706
3831.86	0.00490988
3841.51	0.00569881
3851.15	0.00681118
3860.79	0.00569186
3870.43	0.00594469
3880.07	0.00626099
3889.72	0.00646939
3899.36	0.00635462
3909	0.00660454
3918.64	0.00545491
3928.29	0.00550534
3937.93	0.0056793
3947.57	0.0071483
3957.21	0.00582076
3966.86	0.00685851
3976.5	0.00518208
3986.14	0.00667355
3995.78	0.00626577
