Measurement: Infrared, Infrared Data Processed
Mineral: Vesuvianite
Rruff sample: R050035
Ideal chemistry: (Ca,Na)_19_(Al,Mg,Fe^3+^)_13_(SiO_4_)_10_(Si_2_O_7_)_4_(OH,F,O)_10_
Locality: Olmsteadville, New York, USA
Source: University of Arizona Mineral Museum
Description: Brown single crystal fragment
Measured chemistry: (Ca_18.66_Na_0.34_)_Σ=19_(Al_9.16_Mg_1.28_Ti_1.21_Fe^3+^_0.89_Fe^2+^_0.46_)_Σ=13_Si_18_O_68_((OH)_4.70_F_3.18_O_2.12_)_Σ=10_
x	intensity
399.193	0
408.835	0.239709
418.477	0.231755
428.12	0.234011
437.762	0.228479
447.404	0.208672
457.047	0.190866
466.689	0.21403
476.331	0.221475
485.974	0.221975
495.616	0.178144
505.258	0.147675
514.901	0.123196
524.543	0.112125
534.185	0.112813
543.828	0.112758
553.47	0.121192
563.112	0.1248
572.755	0.129011
582.397	0.118438
592.039	0.100655
601.682	0.0945045
611.324	0.0906481
620.966	0.0879761
630.609	0.0899539
640.251	0.0786595
649.893	0.0573632
659.536	0.0465781
669.178	0.0446348
678.82	0.0429245
688.463	0.0406887
698.105	0.040871
707.747	0.0428116
717.39	0.047121
727.032	0.0582451
736.674	0.0767196
746.317	0.096146
755.959	0.107207
765.601	0.116618
775.244	0.155211
784.886	0.176465
794.528	0.179867
804.171	0.182714
813.813	0.188201
823.455	0.197929
833.098	0.210986
842.74	0.22203
852.382	0.236839
862.025	0.245459
871.667	0.245152
881.309	0.246395
890.952	0.264136
900.594	0.26359
910.236	0.2451
919.879	0.219261
929.521	0.193068
939.163	0.183731
948.806	0.179691
958.448	0.180217
968.09	0.188921
977.733	0.194367
987.375	0.184857
997.017	0.166226
1006.66	0.169109
1016.3	0.165103
1025.94	0.134435
1035.59	0.0944742
1045.23	0.0574201
1054.87	0.0356472
1064.51	0.0257967
1074.16	0.0228004
1083.8	0.0204018
1093.44	0.0174066
1103.08	0.014775
1112.72	0.012895
1122.37	0.0114677
1132.01	0.0101053
1141.65	0.00895609
1151.3	0.00808224
1160.94	0.007195
1170.58	0.00641978
1180.22	0.00578781
1189.86	0.00520712
1199.51	0.00495284
1209.15	0.00448417
1218.79	0.00426086
1228.43	0.00396263
1238.08	0.00415789
1247.72	0.00415873
1257.36	0.00375458
1267	0.0039146
1276.64	0.00407259
1286.29	0.00382419
1295.93	0.00398237
1305.57	0.00413411
1315.21	0.00473894
1324.86	0.00467879
1334.5	0.00479895
1344.14	0.00521666
1353.78	0.00570705
1363.43	0.00597091
1373.07	0.00679393
1382.71	0.00747682
1392.35	0.00822088
1401.99	0.00947657
1411.64	0.01006
1421.28	0.0109184
1430.92	0.011358
1440.57	0.0112305
1450.21	0.0115465
1459.85	0.0111837
1469.49	0.0111702
1479.13	0.0115638
1488.78	0.0117169
1498.42	0.0104655
1508.06	0.00974549
1517.7	0.00891919
1527.35	0.00889192
1536.99	0.00928696
1546.63	0.00968769
1556.27	0.0104043
1565.91	0.011237
1575.56	0.0113439
1585.2	0.0108296
1594.84	0.0102331
1604.48	0.0100546
1614.13	0.00977939
1623.77	0.00931984
1633.41	0.00902866
1643.05	0.00900956
1652.7	0.00890688
1662.34	0.00927757
1671.98	0.00865585
1681.62	0.00809051
1691.27	0.00786807
1700.91	0.00812627
1710.55	0.00773484
1720.19	0.00775514
1729.84	0.00707104
1739.48	0.00651675
1749.12	0.00705249
1758.76	0.00713852
1768.4	0.00706185
1778.05	0.00739083
1787.69	0.00724608
1797.33	0.0070264
1806.97	0.00705835
1816.62	0.00671823
1826.26	0.00732554
1835.9	0.00650403
1845.54	0.00612135
1855.18	0.00709163
1864.83	0.00639173
1874.47	0.00686602
1884.11	0.00654324
1893.75	0.00604111
1903.4	0.00628813
1913.04	0.00725688
1922.68	0.0045486
1932.32	0.00513905
1941.97	0.00368921
1951.61	0.00376844
1961.25	0.0015387
1970.89	7.76484e-05
1980.54	0.00576307
1990.18	0.00126185
1999.82	0.00126666
2009.46	0.00356191
2019.11	0.00407223
2028.75	-0.000626871
2038.39	0.00472405
2048.03	0.00540333
2057.67	0.00721546
2067.32	0.00703719
2076.96	0.00935288
2086.6	0.00886551
2096.24	0.00815792
2105.89	0.011417
2115.53	0.0102854
2125.17	0.00923593
2134.81	0.00730823
2144.45	0.00797795
2154.1	0.00464405
2163.74	0.0128564
2173.38	0.0104658
2183.02	0.00973968
2192.67	0.0101815
2202.31	0.0117204
2211.95	0.0112802
2221.59	0.0149284
2231.24	0.0135289
2240.88	0.0139431
2250.52	0.0134489
2260.16	0.0124121
2269.8	0.0144642
2279.45	0.0155427
2289.09	0.0158189
2298.73	0.0147478
2308.38	0.0147983
2318.02	0.0153623
2327.66	0.0143411
2337.3	0.0138844
2346.94	0.0140382
2356.59	0.0144549
2366.23	0.0133085
2375.87	0.0135387
2385.51	0.0137269
2395.16	0.0139835
2404.8	0.0143784
2414.44	0.014353
2424.08	0.0137474
2433.72	0.0143489
2443.37	0.0151816
2453.01	0.0139473
2462.65	0.0146429
2472.29	0.0149386
2481.94	0.0144772
2491.58	0.0149441
2501.22	0.0146444
2510.86	0.0147796
2520.51	0.0150641
2530.15	0.0150934
2539.79	0.0146836
2549.43	0.015977
2559.07	0.0161792
2568.72	0.0164535
2578.36	0.0152875
2588	0.0158476
2597.64	0.0164098
2607.29	0.0166088
2616.93	0.0173095
2626.57	0.0172382
2636.21	0.0171699
2645.86	0.016776
2655.5	0.0170986
2665.14	0.0174464
2674.78	0.0165395
2684.43	0.0165842
2694.07	0.0163898
2703.71	0.017205
2713.35	0.0163357
2722.99	0.0173479
2732.64	0.0166513
2742.28	0.0162621
2751.92	0.0173517
2761.56	0.0176108
2771.21	0.0174097
2780.85	0.0173513
2790.49	0.0179027
2800.13	0.0182984
2809.78	0.0171375
2819.42	0.0187131
2829.06	0.0177903
2838.7	0.0191931
2848.34	0.0179699
2857.99	0.0175714
2867.63	0.0175513
2877.27	0.0189167
2886.91	0.0183416
2896.56	0.018511
2906.2	0.0177517
2915.84	0.0174701
2925.48	0.0169824
2935.13	0.017375
2944.77	0.0192411
2954.41	0.0170213
2964.05	0.0193282
2973.7	0.020229
2983.34	0.0200878
2992.98	0.0204297
3002.62	0.0206327
3012.26	0.0197736
3021.91	0.0208931
3031.55	0.0208243
3041.19	0.0200581
3050.83	0.0204904
3060.48	0.0223945
3070.12	0.0209262
3079.76	0.0229131
3089.4	0.0221785
3099.05	0.0222865
3108.69	0.0237995
3118.33	0.0229261
3127.97	0.0211438
3137.61	0.0236765
3147.26	0.0254837
3156.9	0.0247474
3166.54	0.0249747
3176.18	0.0251931
3185.83	0.0257767
3195.47	0.0259311
3205.11	0.0252157
3214.75	0.0266308
3224.4	0.0267312
3234.04	0.0263159
3243.68	0.0244065
3253.32	0.0258327
3262.97	0.0253136
3272.61	0.0265825
3282.25	0.0263587
3291.89	0.0246132
3301.53	0.0267105
3311.18	0.0267338
3320.82	0.025562
3330.46	0.0267694
3340.1	0.0285682
3349.75	0.0280133
3359.39	0.0288893
3369.03	0.0299209
3378.67	0.0285601
3388.32	0.0289201
3397.96	0.0292147
3407.6	0.0308127
3417.24	0.0299622
3426.89	0.0314879
3436.53	0.0331123
3446.17	0.0345825
3455.81	0.0355892
3465.45	0.0363889
3475.1	0.0358043
3484.74	0.0361453
3494.38	0.0316566
3504.02	0.0293958
3513.67	0.0264761
3523.31	0.0263776
3532.95	0.027801
3542.59	0.0325966
3552.24	0.0347508
3561.88	0.0384275
3571.52	0.0371005
3581.16	0.0374465
3590.8	0.0320817
3600.45	0.0286181
3610.09	0.0270066
3619.73	0.0232895
3629.37	0.0208648
3639.02	0.0204347
3648.66	0.0221456
3658.3	0.0213077
3667.94	0.0196289
3677.59	0.0230654
3687.23	0.0182039
3696.87	0.0209502
3706.51	0.0199502
3716.16	0.0209462
3725.8	0.024123
3735.44	0.0181227
3745.08	0.0187727
3754.72	0.0216587
3764.37	0.0216466
3774.01	0.0221611
3783.65	0.0220727
3793.29	0.0235985
3802.94	0.0243887
3812.58	0.0242072
3822.22	0.023932
3831.86	0.0216243
3841.51	0.0234782
3851.15	0.0251275
3860.79	0.0228391
3870.43	0.0208106
3880.07	0.0212092
3889.72	0.0232384
3899.36	0.0231279
3909	0.0218767
3918.64	0.0251941
3928.29	0.0236752
3937.93	0.0233041
3947.57	0.0232454
3957.21	0.019937
3966.86	0.0256106
3976.5	0.0237305
3986.14	0.0240466
3995.78	0.0239667
