Measurement: Infrared, Infrared Data Processed
Mineral: Vivianite
Rruff sample: R050464
Ideal chemistry: Fe^2+^_3_(PO_4_)_2_8H_2_O
Locality: Siglo XX mine, Llallagua, Potosi, Bolivia
Source: University of Arizona Mineral Museum
Description: Bluish green elongated prismatic crystals
Measured chemistry: Fe^2+^_3.00_(P_1.00_O_4_)_2_Â·8H_2_O
x	intensity
374.123	0.202094
383.765	0.183032
393.407	0.18056
403.05	0.187051
412.692	0.193909
422.334	0.196569
431.976	0.199893
441.619	0.200119
451.261	0.200578
460.904	0.194459
470.546	0.195513
480.188	0.197947
489.83	0.198629
499.473	0.202224
509.115	0.208595
518.758	0.21524
528.4	0.222763
538.042	0.225198
547.684	0.215882
557.327	0.207742
566.969	0.200051
576.611	0.189321
586.254	0.177189
595.896	0.160004
605.538	0.144454
615.181	0.132944
624.823	0.125181
634.466	0.117291
644.108	0.109899
653.75	0.104545
663.393	0.101216
673.035	0.0995179
682.677	0.0997176
692.319	0.0997895
701.962	0.0994829
711.604	0.0999907
721.246	0.099547
730.889	0.100313
740.531	0.102258
750.173	0.104972
759.816	0.109768
769.458	0.115261
779.101	0.117399
788.743	0.116639
798.385	0.116698
808.028	0.11736
817.67	0.117363
827.312	0.118856
836.955	0.121849
846.597	0.127565
856.239	0.134169
865.881	0.144226
875.524	0.158524
885.166	0.177761
894.808	0.201667
904.451	0.22589
914.093	0.254918
923.736	0.29486
933.378	0.335201
943.02	0.372026
952.663	0.404529
962.305	0.411563
971.947	0.410275
981.59	0.417679
991.232	0.402316
1000.87	0.379201
1010.52	0.362545
1020.16	0.341116
1029.8	0.319614
1039.44	0.30067
1049.09	0.271325
1058.73	0.241331
1068.37	0.215306
1078.01	0.190928
1087.65	0.163479
1097.3	0.140818
1106.94	0.12453
1116.58	0.110284
1126.22	0.0974721
1135.87	0.0853489
1145.51	0.0734083
1155.15	0.0618677
1164.79	0.0512901
1174.44	0.0422076
1184.08	0.0349651
1193.72	0.0300415
1203.36	0.0267934
1213.01	0.0248028
1222.65	0.0235027
1232.29	0.0227373
1241.93	0.022049
1251.58	0.0218041
1261.22	0.0215089
1270.86	0.0214187
1280.5	0.0216847
1290.14	0.0218175
1299.79	0.0216976
1309.43	0.0218388
1319.07	0.021896
1328.71	0.0218595
1338.36	0.0223321
1348	0.0224127
1357.64	0.0227808
1367.28	0.0233294
1376.92	0.0238238
1386.57	0.0245469
1396.21	0.0256684
1405.85	0.0264422
1415.49	0.0273639
1425.14	0.028429
1434.78	0.0291862
1444.42	0.0294885
1454.06	0.0297441
1463.71	0.0297093
1473.35	0.0307307
1482.99	0.0310413
1492.63	0.032244
1502.28	0.0337102
1511.92	0.0353924
1521.56	0.0381687
1531.2	0.0398382
1540.85	0.0436411
1550.49	0.0452379
1560.13	0.0496502
1569.77	0.0521756
1579.41	0.0556768
1589.06	0.0597777
1598.7	0.0636619
1608.34	0.0661463
1617.98	0.0681921
1627.63	0.0671327
1637.27	0.0649661
1646.91	0.0612604
1656.55	0.0565231
1666.19	0.0520606
1675.84	0.0480109
1685.48	0.0431144
1695.12	0.0381732
1704.77	0.0340394
1714.41	0.0315825
1724.05	0.0293214
1733.69	0.0288267
1743.33	0.0269631
1752.98	0.0264921
1762.62	0.0263412
1772.26	0.0264431
1781.9	0.0260126
1791.55	0.0261666
1801.19	0.025825
1810.83	0.0257945
1820.47	0.0253845
1830.12	0.0257436
1839.76	0.0254897
1849.4	0.0256803
1859.04	0.0252384
1868.68	0.0253624
1878.33	0.0248857
1887.97	0.0249694
1897.61	0.0251859
1907.25	0.0256655
1916.9	0.0247306
1926.54	0.024331
1936.18	0.0251804
1945.82	0.024581
1955.46	0.023477
1965.11	0.0262382
1974.75	0.0251083
1984.39	0.0263654
1994.04	0.0274344
2003.68	0.0250168
2013.32	0.0274295
2022.96	0.0270833
2032.6	0.0275109
2042.25	0.0283914
2051.89	0.0294839
2061.53	0.0279703
2071.17	0.0295017
2080.82	0.0307046
2090.46	0.030269
2100.1	0.0314377
2109.74	0.0320954
2119.39	0.0314972
2129.03	0.0311774
2138.67	0.0325347
2148.31	0.0341443
2157.95	0.0351105
2167.6	0.0381653
2177.24	0.0367474
2186.88	0.0370526
2196.52	0.0380728
2206.17	0.0384322
2215.81	0.0385298
2225.45	0.0398563
2235.09	0.039922
2244.74	0.0395533
2254.38	0.0406895
2264.02	0.0408248
2273.66	0.0423553
2283.3	0.0420879
2292.95	0.0425956
2302.59	0.0429387
2312.23	0.0429545
2321.87	0.0450557
2331.52	0.0449997
2341.16	0.0453632
2350.8	0.0447692
2360.44	0.0465463
2370.09	0.046505
2379.73	0.0456361
2389.37	0.0461421
2399.01	0.0459755
2408.66	0.0465078
2418.3	0.0471364
2427.94	0.0470453
2437.58	0.0469932
2447.22	0.047263
2456.87	0.0470336
2466.51	0.047267
2476.15	0.0482735
2485.79	0.0475906
2495.44	0.0479917
2505.08	0.0485816
2514.72	0.0491256
2524.36	0.0494346
2534.01	0.0505639
2543.65	0.0513911
2553.29	0.0522124
2562.93	0.0536388
2572.57	0.0550052
2582.22	0.0557912
2591.86	0.0570521
2601.5	0.0579636
2611.14	0.0599961
2620.79	0.0616351
2630.43	0.0631581
2640.07	0.0649597
2649.71	0.0661617
2659.36	0.067944
2669	0.0689791
2678.64	0.0706671
2688.28	0.0723796
2697.93	0.0740995
2707.57	0.0757659
2717.21	0.0781842
2726.85	0.0800486
2736.49	0.0814773
2746.14	0.0835706
2755.78	0.0856826
2765.42	0.0878808
2775.06	0.0894986
2784.71	0.091736
2794.35	0.0941265
2803.99	0.0964286
2813.63	0.0991094
2823.28	0.100855
2832.92	0.10347
2842.56	0.10493
2852.2	0.106017
2861.84	0.108647
2871.49	0.111746
2881.13	0.114163
2890.77	0.116456
2900.41	0.118229
2910.06	0.119798
2919.7	0.120221
2929.34	0.123238
2938.98	0.126366
2948.62	0.128155
2958.27	0.130992
2967.91	0.133119
2977.55	0.135434
2987.2	0.137725
2996.84	0.139443
3006.48	0.142435
3016.12	0.141736
3025.76	0.146511
3035.41	0.148403
3045.05	0.150063
3054.69	0.151699
3064.33	0.153308
3073.98	0.15435
3083.62	0.155406
3093.26	0.157324
3102.9	0.158713
3112.55	0.161015
3122.19	0.163
3131.83	0.165093
3141.47	0.167174
3151.11	0.167776
3160.76	0.167765
3170.4	0.167577
3180.04	0.167817
3189.68	0.167445
3199.33	0.166415
3208.97	0.16612
3218.61	0.164964
3228.25	0.163998
3237.9	0.163477
3247.54	0.163641
3257.18	0.162292
3266.82	0.162121
3276.47	0.160917
3286.11	0.15975
3295.75	0.159281
3305.39	0.158624
3315.03	0.159
3324.68	0.158001
3334.32	0.158208
3343.96	0.157738
3353.6	0.157102
3363.25	0.155753
3372.89	0.154283
3382.53	0.151564
3392.17	0.146346
3401.82	0.141957
3411.46	0.137969
3421.1	0.136848
3430.74	0.136102
3440.39	0.135422
3450.03	0.132539
3459.67	0.126609
3469.31	0.119025
3478.95	0.111886
3488.6	0.102829
3498.24	0.0940012
3507.88	0.087598
3517.52	0.0818062
3527.17	0.0761252
3536.81	0.0691261
3546.45	0.063036
3556.09	0.0567428
3565.74	0.0506811
3575.38	0.0441695
3585.02	0.0365845
3594.66	0.0317732
3604.3	0.0249976
3613.95	0.0204794
3623.59	0.0169684
3633.23	0.0126994
3642.87	0.0110146
3652.52	0.0100811
3662.16	0.00784284
3671.8	0.0084346
3681.44	0.00644867
3691.09	0.00696117
3700.73	0.00719621
3710.37	0.00786644
3720.01	0.00594145
3729.66	0.00616159
3739.3	0.00635725
3748.94	0.00902203
3758.58	0.00804088
3768.22	0.00767536
3777.87	0.0078223
3787.51	0.00636719
3797.15	0.00740657
3806.79	0.00721768
3816.44	0.00829932
3826.08	0.00831216
3835.72	0.00820592
3845.36	0.00801186
3855.01	0.00941129
3864.65	0.00866915
3874.29	0.00799926
3883.93	0.00855353
3893.57	0.0077498
3903.22	0.00963876
3912.86	0.00758794
3922.5	0.0083893
3932.14	0.00927714
3941.79	0.00864719
3951.43	0.00746958
3961.07	0.00748228
3970.71	0.00782124
3980.36	0.00772913
3990	0.00830062
3999.64	0.00805059
