Measurement: Infrared, Infrared Data Processed
Mineral: Vivianite
Rruff sample: R050076
Ideal chemistry: Fe^2+^_3_(PO_4_)_2_8H_2_O
Locality: near Canutillos mine, Potosi, Saavedra, Bolivia
Source: Rock Currier
Description: Green prismatic and elongated single crystal
Measured chemistry: (Fe^2+^_0.99_Mn_0.01_)_3_(P_1.00_O_4_)_2_Â·8H_2_O
x	intensity
399.193	0.252708
408.835	0.259158
418.477	0.273379
428.12	0.284532
437.762	0.292042
447.404	0.288175
457.047	0.263319
466.689	0.213758
476.331	0.1661
485.974	0.167278
495.616	0.158654
505.258	0.146998
514.901	0.167551
524.543	0.207044
534.185	0.246414
543.828	0.270992
553.47	0.290164
563.112	0.301424
572.755	0.305383
582.397	0.303021
592.039	0.296498
601.682	0.289517
611.324	0.279523
620.966	0.256963
630.609	0.251653
640.251	0.264214
649.893	0.251441
659.536	0.236255
669.178	0.221547
678.82	0.208738
688.463	0.196293
698.105	0.186391
707.747	0.176861
717.39	0.168209
727.032	0.159447
736.674	0.151946
746.317	0.145016
755.959	0.138972
765.601	0.133976
775.244	0.12864
784.886	0.123556
794.528	0.118415
804.171	0.113428
813.813	0.108175
823.455	0.102108
833.098	0.0948354
842.74	0.0865826
852.382	0.0779765
862.025	0.0690058
871.667	0.0602916
881.309	0.0539155
890.952	0.0500529
900.594	0.0490811
910.236	0.0494169
919.879	0.0525232
929.521	0.0594193
939.163	0.0701262
948.806	0.077386
958.448	0.0842876
968.09	0.0989891
977.733	0.102262
987.375	0.101496
997.017	0.103271
1006.66	0.106528
1016.3	0.106521
1025.94	0.106215
1035.59	0.108724
1045.23	0.109402
1054.87	0.102501
1064.51	0.0906602
1074.16	0.079586
1083.8	0.0678269
1093.44	0.0583755
1103.08	0.0522362
1112.72	0.0473177
1122.37	0.0426645
1132.01	0.0381092
1141.65	0.033691
1151.3	0.0292414
1160.94	0.0256986
1170.58	0.022148
1180.22	0.0195922
1189.86	0.0173385
1199.51	0.0154617
1209.15	0.0139577
1218.79	0.0125712
1228.43	0.0109737
1238.08	0.009957
1247.72	0.00868957
1257.36	0.00811642
1267	0.00782935
1276.64	0.00758681
1286.29	0.00718368
1295.93	0.00697483
1305.57	0.00699216
1315.21	0.00746887
1324.86	0.00715462
1334.5	0.00717408
1344.14	0.0069764
1353.78	0.0071971
1363.43	0.00772517
1373.07	0.00843566
1382.71	0.00762603
1392.35	0.00802968
1401.99	0.00829727
1411.64	0.00818001
1421.28	0.00867905
1430.92	0.00896492
1440.57	0.00897551
1450.21	0.00992134
1459.85	0.00990864
1469.49	0.00961112
1479.13	0.00850801
1488.78	0.00846797
1498.42	0.00860601
1508.06	0.00885355
1517.7	0.00952959
1527.35	0.0103547
1536.99	0.0115151
1546.63	0.0121728
1556.27	0.0135804
1565.91	0.0151898
1575.56	0.015837
1585.2	0.0172946
1594.84	0.0182389
1604.48	0.0189163
1614.13	0.01954
1623.77	0.0198519
1633.41	0.0196913
1643.05	0.0192001
1652.7	0.0180182
1662.34	0.0174703
1671.98	0.0159413
1681.62	0.0138076
1691.27	0.0123321
1700.91	0.0109355
1710.55	0.0102444
1720.19	0.00936959
1729.84	0.0080471
1739.48	0.0062333
1749.12	0.00536758
1758.76	0.00594467
1768.4	0.0063362
1778.05	0.00587482
1787.69	0.00594716
1797.33	0.00559635
1806.97	0.00575589
1816.62	0.00512971
1826.26	0.00574956
1835.9	0.00510308
1845.54	0.00517794
1855.18	0.00557964
1864.83	0.00478342
1874.47	0.00515237
1884.11	0.00473066
1893.75	0.00403304
1903.4	0.00396084
1913.04	0.00528662
1922.68	0.00320506
1932.32	0.00337172
1941.97	0.00305347
1951.61	0.00190519
1961.25	0.00231571
1970.89	-0.00114169
1980.54	0.00234729
1990.18	0.00105583
1999.82	0.00083808
2009.46	5.13973e-05
2019.11	-0.000489592
2028.75	0.00153661
2038.39	0.00292714
2048.03	0.00435823
2057.67	0.00241219
2067.32	0.00282183
2076.96	0.00387319
2086.6	0.00455655
2096.24	0.00372821
2105.89	0.00446455
2115.53	0.00357459
2125.17	0.00443443
2134.81	0.00251928
2144.45	0.00535306
2154.1	0.000816616
2163.74	0.00597604
2173.38	0.00454121
2183.02	0.00539354
2192.67	0.00961481
2202.31	0.00683638
2211.95	0.00668085
2221.59	0.00746416
2231.24	0.00712876
2240.88	0.00800768
2250.52	0.0093707
2260.16	0.00801039
2269.8	0.00999908
2279.45	0.00986365
2289.09	0.00967858
2298.73	0.0105014
2308.38	0.0108266
2318.02	0.0118642
2327.66	0.0099737
2337.3	0.0109206
2346.94	0.0108349
2356.59	0.010102
2366.23	0.00982557
2375.87	0.00992872
2385.51	0.0101502
2395.16	0.0102252
2404.8	0.0110109
2414.44	0.0112578
2424.08	0.0102626
2433.72	0.0122715
2443.37	0.011551
2453.01	0.0119825
2462.65	0.0129212
2472.29	0.0122761
2481.94	0.0116204
2491.58	0.0115693
2501.22	0.0118392
2510.86	0.0132213
2520.51	0.0118016
2530.15	0.0119128
2539.79	0.012795
2549.43	0.0136068
2559.07	0.0129997
2568.72	0.0135323
2578.36	0.0131007
2588	0.0141633
2597.64	0.0139215
2607.29	0.0147037
2616.93	0.0156416
2626.57	0.015005
2636.21	0.0160157
2645.86	0.0166607
2655.5	0.0170811
2665.14	0.016601
2674.78	0.0164172
2684.43	0.0163895
2694.07	0.0178874
2703.71	0.0182039
2713.35	0.0176295
2722.99	0.0185615
2732.64	0.0193031
2742.28	0.01934
2751.92	0.0206507
2761.56	0.0212916
2771.21	0.0219052
2780.85	0.022691
2790.49	0.0229043
2800.13	0.0234379
2809.78	0.0248389
2819.42	0.0254471
2829.06	0.0263625
2838.7	0.0276796
2848.34	0.0280586
2857.99	0.0280144
2867.63	0.0309975
2877.27	0.0317447
2886.91	0.0320081
2896.56	0.0350098
2906.2	0.0354541
2915.84	0.0371218
2925.48	0.0374581
2935.13	0.0368775
2944.77	0.0383703
2954.41	0.0389714
2964.05	0.0400281
2973.7	0.0397473
2983.34	0.0403887
2992.98	0.040962
3002.62	0.041444
3012.26	0.0427821
3021.91	0.0436282
3031.55	0.0456719
3041.19	0.0459016
3050.83	0.0462132
3060.48	0.0490031
3070.12	0.0502864
3079.76	0.05224
3089.4	0.0523099
3099.05	0.0524974
3108.69	0.05469
3118.33	0.0554209
3127.97	0.0553997
3137.61	0.0575711
3147.26	0.0588329
3156.9	0.0597066
3166.54	0.0599536
3176.18	0.0605923
3185.83	0.0607607
3195.47	0.0618987
3205.11	0.0616649
3214.75	0.0617576
3224.4	0.0615529
3234.04	0.0617988
3243.68	0.0607065
3253.32	0.0610923
3262.97	0.0614484
3272.61	0.0625141
3282.25	0.0602456
3291.89	0.0606307
3301.53	0.0631241
3311.18	0.0607248
3320.82	0.0604303
3330.46	0.0592587
3340.1	0.0605926
3349.75	0.0593166
3359.39	0.0596417
3369.03	0.0582828
3378.67	0.0584338
3388.32	0.0581085
3397.96	0.0575819
3407.6	0.0556117
3417.24	0.0545808
3426.89	0.055981
3436.53	0.0550475
3446.17	0.0528354
3455.81	0.0532123
3465.45	0.0533512
3475.1	0.0521952
3484.74	0.0501977
3494.38	0.0488558
3504.02	0.0452132
3513.67	0.0425632
3523.31	0.0386126
3532.95	0.0343443
3542.59	0.0350029
3552.24	0.0309309
3561.88	0.029779
3571.52	0.0256512
3581.16	0.023918
3590.8	0.0227458
3600.45	0.0204516
3610.09	0.0192969
3619.73	0.0153297
3629.37	0.0170736
3639.02	0.0151172
3648.66	0.0150537
3658.3	0.00979645
3667.94	0.00926307
3677.59	0.0103425
3687.23	0.0105712
3696.87	0.00993077
3706.51	0.0082076
3716.16	0.0111693
3725.8	0.00845301
3735.44	0.0100728
3745.08	0.0102998
3754.72	0.0113514
3764.37	0.0118313
3774.01	0.0105148
3783.65	0.0101814
3793.29	0.0104472
3802.94	0.0109651
3812.58	0.0134556
3822.22	0.012694
3831.86	0.00998219
3841.51	0.0110629
3851.15	0.00988982
3860.79	0.0130134
3870.43	0.00896276
3880.07	0.00890559
3889.72	0.0117686
3899.36	0.00946896
3909	0.00970973
3918.64	0.00990849
3928.29	0.0101408
3937.93	0.0118513
3947.57	0.00999181
3957.21	0.012921
3966.86	0.0124819
3976.5	0.0121048
3986.14	0.0127155
3995.78	0.0112297
