Measurement: Infrared, Infrared Data Processed
Mineral: Volborthite
Rruff sample: R050216
Ideal chemistry: Cu^2+^_3_V^5+^_2_O_7_(OH)_2_2H_2_O
Locality: Monument Valley, White Canyon-Monument Valley District, Apache & Navajo Counties, Arizona, USA
Source: Marcus Origlieri
Description: Green rosettelike aggregate of hexagonal scaly crystals
Measured chemistry: Cu_3.00_V_2.00_O_7_(OH)_2_Â·2H_2_O
x	intensity
399.193	0.162202
408.835	0.180547
418.477	0.187534
428.12	0.180334
437.762	0.173852
447.404	0.177478
457.047	0.186808
466.689	0.196545
476.331	0.190158
485.974	0.182062
495.616	0.19373
505.258	0.216839
514.901	0.20108
524.543	0.199014
534.185	0.192057
543.828	0.152959
553.47	0.147124
563.112	0.151351
572.755	0.116999
582.397	0.0992675
592.039	0.0971897
601.682	0.0994519
611.324	0.104347
620.966	0.111098
630.609	0.121513
640.251	0.135062
649.893	0.150411
659.536	0.169154
669.178	0.192708
678.82	0.218812
688.463	0.248369
698.105	0.275803
707.747	0.300675
717.39	0.320236
727.032	0.331146
736.674	0.328695
746.317	0.313605
755.959	0.286332
765.601	0.268908
775.244	0.257419
784.886	0.24443
794.528	0.230912
804.171	0.206857
813.813	0.180552
823.455	0.169335
833.098	0.209622
842.74	0.238349
852.382	0.209676
862.025	0.166632
871.667	0.1403
881.309	0.140105
890.952	0.195777
900.594	0.174584
910.236	0.115634
919.879	0.074348
929.521	0.0537461
939.163	0.0466132
948.806	0.0456553
958.448	0.0506183
968.09	0.0607004
977.733	0.0748763
987.375	0.0925946
997.017	0.111611
1006.66	0.130435
1016.3	0.142582
1025.94	0.143363
1035.59	0.133544
1045.23	0.116097
1054.87	0.100218
1064.51	0.0886421
1074.16	0.0810168
1083.8	0.0776948
1093.44	0.0742285
1103.08	0.0686754
1112.72	0.0605226
1122.37	0.0511981
1132.01	0.0430577
1141.65	0.0366351
1151.3	0.0317182
1160.94	0.0287832
1170.58	0.0266227
1180.22	0.0237708
1189.86	0.0215266
1199.51	0.0186829
1209.15	0.0160113
1218.79	0.0139869
1228.43	0.0128705
1238.08	0.0121277
1247.72	0.0120842
1257.36	0.0118061
1267	0.0120494
1276.64	0.0133702
1286.29	0.0142863
1295.93	0.0133511
1305.57	0.012633
1315.21	0.0120618
1324.86	0.0119865
1334.5	0.0119923
1344.14	0.0120101
1353.78	0.0122387
1363.43	0.0125787
1373.07	0.0128708
1382.71	0.0132988
1392.35	0.0137566
1401.99	0.0139123
1411.64	0.0139865
1421.28	0.013916
1430.92	0.0143034
1440.57	0.0151207
1450.21	0.0145141
1459.85	0.0149654
1469.49	0.0148388
1479.13	0.0149793
1488.78	0.0155669
1498.42	0.0159233
1508.06	0.0169864
1517.7	0.0167236
1527.35	0.0170366
1536.99	0.0174412
1546.63	0.0176975
1556.27	0.0186725
1565.91	0.0192646
1575.56	0.0209785
1585.2	0.0229338
1594.84	0.0273104
1604.48	0.0385972
1614.13	0.0567402
1623.77	0.0338914
1633.41	0.0249002
1643.05	0.02184
1652.7	0.0209388
1662.34	0.0196142
1671.98	0.0193537
1681.62	0.0193012
1691.27	0.0195733
1700.91	0.0218702
1710.55	0.0211505
1720.19	0.0204715
1729.84	0.0201355
1739.48	0.0191416
1749.12	0.0192475
1758.76	0.0196071
1768.4	0.0202261
1778.05	0.0204041
1787.69	0.0209633
1797.33	0.0214143
1806.97	0.0212448
1816.62	0.0213398
1826.26	0.0220336
1835.9	0.0223523
1845.54	0.0231014
1855.18	0.0235843
1864.83	0.0247732
1874.47	0.0249775
1884.11	0.025632
1893.75	0.0259335
1903.4	0.0273563
1913.04	0.0281848
1922.68	0.0296064
1932.32	0.0307924
1941.97	0.0323153
1951.61	0.0332628
1961.25	0.034736
1970.89	0.0361208
1980.54	0.0360126
1990.18	0.0368346
1999.82	0.0347519
2009.46	0.0329735
2019.11	0.0330498
2028.75	0.0303682
2038.39	0.0292803
2048.03	0.0302511
2057.67	0.0291777
2067.32	0.0300526
2076.96	0.0297365
2086.6	0.0297483
2096.24	0.0302478
2105.89	0.0302787
2115.53	0.0302781
2125.17	0.0311149
2134.81	0.0302638
2144.45	0.0322202
2154.1	0.0297878
2163.74	0.029064
2173.38	0.0305604
2183.02	0.0317182
2192.67	0.0297264
2202.31	0.0305101
2211.95	0.0312884
2221.59	0.0310561
2231.24	0.0314785
2240.88	0.0313739
2250.52	0.0315584
2260.16	0.0315353
2269.8	0.0324324
2279.45	0.0320643
2289.09	0.0325487
2298.73	0.0325543
2308.38	0.0330484
2318.02	0.0336271
2327.66	0.0341082
2337.3	0.0348127
2346.94	0.0344361
2356.59	0.035308
2366.23	0.0359278
2375.87	0.0357512
2385.51	0.0354577
2395.16	0.0363079
2404.8	0.0361988
2414.44	0.0365228
2424.08	0.0369854
2433.72	0.037354
2443.37	0.0384521
2453.01	0.0385354
2462.65	0.0382879
2472.29	0.0393447
2481.94	0.0396672
2491.58	0.0398085
2501.22	0.0408425
2510.86	0.0408783
2520.51	0.0417362
2530.15	0.0422085
2539.79	0.0434706
2549.43	0.0439546
2559.07	0.0440129
2568.72	0.0456753
2578.36	0.0459317
2588	0.0466822
2597.64	0.0478717
2607.29	0.0487344
2616.93	0.049416
2626.57	0.0500542
2636.21	0.0510076
2645.86	0.0515431
2655.5	0.0525897
2665.14	0.0532259
2674.78	0.0544034
2684.43	0.0558249
2694.07	0.0567805
2703.71	0.0582896
2713.35	0.0599039
2722.99	0.0610096
2732.64	0.0626374
2742.28	0.0639414
2751.92	0.0662597
2761.56	0.0682693
2771.21	0.0700123
2780.85	0.0721979
2790.49	0.0745759
2800.13	0.0769683
2809.78	0.0795065
2819.42	0.0814715
2829.06	0.0834115
2838.7	0.0847704
2848.34	0.0852193
2857.99	0.0867259
2867.63	0.0885828
2877.27	0.0884995
2886.91	0.0881696
2896.56	0.0879265
2906.2	0.087043
2915.84	0.0839955
2925.48	0.0831173
2935.13	0.082958
2944.77	0.0822996
2954.41	0.0809278
2964.05	0.0799884
2973.7	0.0779669
2983.34	0.076623
2992.98	0.0752853
3002.62	0.074453
3012.26	0.0734575
3021.91	0.0724389
3031.55	0.071625
3041.19	0.0706031
3050.83	0.0694715
3060.48	0.0680259
3070.12	0.0676367
3079.76	0.0657077
3089.4	0.064346
3099.05	0.0634273
3108.69	0.0629785
3118.33	0.0624388
3127.97	0.0614379
3137.61	0.0606221
3147.26	0.0597342
3156.9	0.0579699
3166.54	0.0577981
3176.18	0.0583727
3185.83	0.0574596
3195.47	0.0567742
3205.11	0.0566344
3214.75	0.0555963
3224.4	0.0543976
3234.04	0.0543392
3243.68	0.0548643
3253.32	0.0557155
3262.97	0.0560892
3272.61	0.0561545
3282.25	0.0569313
3291.89	0.0568262
3301.53	0.05722
3311.18	0.0585142
3320.82	0.0583719
3330.46	0.0599488
3340.1	0.0610413
3349.75	0.0610667
3359.39	0.0624939
3369.03	0.0637588
3378.67	0.0660609
3388.32	0.0669777
3397.96	0.069489
3407.6	0.0710222
3417.24	0.0733407
3426.89	0.0748782
3436.53	0.0765346
3446.17	0.0780104
3455.81	0.0784336
3465.45	0.0793299
3475.1	0.080411
3484.74	0.0803457
3494.38	0.0790883
3504.02	0.0788999
3513.67	0.0812877
3523.31	0.0840993
3532.95	0.0855488
3542.59	0.0856741
3552.24	0.0807323
3561.88	0.0747589
3571.52	0.0673974
3581.16	0.0620051
3590.8	0.0586275
3600.45	0.0568905
3610.09	0.0552421
3619.73	0.0545344
3629.37	0.0531503
3639.02	0.0513146
3648.66	0.0507923
3658.3	0.0489193
3667.94	0.0478839
3677.59	0.0479647
3687.23	0.0484662
3696.87	0.04771
3706.51	0.0463086
3716.16	0.045405
3725.8	0.0467206
3735.44	0.0468568
3745.08	0.0474959
3754.72	0.0464332
3764.37	0.0475652
3774.01	0.0474235
3783.65	0.0479199
3793.29	0.0478766
3802.94	0.048768
3812.58	0.0482891
3822.22	0.049002
3831.86	0.0490951
3841.51	0.0494237
3851.15	0.0500873
3860.79	0.0502466
3870.43	0.0506088
3880.07	0.050012
3889.72	0.0505397
3899.36	0.0499122
3909	0.0498352
3918.64	0.0505577
3928.29	0.0524915
3937.93	0.0503442
3947.57	0.0515577
3957.21	0.0501527
3966.86	0.0515486
3976.5	0.0525448
3986.14	0.052699
3995.78	0.0517085
