Measurement: Infrared, Infrared Data Processed
Mineral: Warwickite
Rruff sample: R050674
Ideal chemistry: (Mg,Ti^4+^,Fe^3+^,Cr^3+^,Al)_2_O(BO_3_)
Locality: Edenville, Orange County, New York, USA
Source: University of Arizona Mineral Museum
Description: Black prismatic crystals embedded in matrix
Measured chemistry: (Mg_1.23_Ti_0.39_Fe^2+^_0.17_Al_0.19_Fe^3+^_0.02_)_Î£=2_O(BO_3_) ; B not measured but estimated by difference and charge balance
x	intensity
399.193	0.336475
408.835	0.294539
418.477	0.287633
428.12	0.278303
437.762	0.248792
447.404	0.235863
457.047	0.221199
466.689	0.22544
476.331	0.219731
485.974	0.213301
495.616	0.211254
505.258	0.206856
514.901	0.192475
524.543	0.176817
534.185	0.164778
543.828	0.15217
553.47	0.140499
563.112	0.129977
572.755	0.130386
582.397	0.142091
592.039	0.159815
601.682	0.163026
611.324	0.159735
620.966	0.152241
630.609	0.145878
640.251	0.141792
649.893	0.137745
659.536	0.13684
669.178	0.142684
678.82	0.155499
688.463	0.160282
698.105	0.176951
707.747	0.201597
717.39	0.216381
727.032	0.207189
736.674	0.194735
746.317	0.181496
755.959	0.160423
765.601	0.136087
775.244	0.114054
784.886	0.0938174
794.528	0.0773924
804.171	0.0644952
813.813	0.0572077
823.455	0.0513655
833.098	0.0468154
842.74	0.0450424
852.382	0.0438943
862.025	0.0443024
871.667	0.0494146
881.309	0.0625249
890.952	0.0466105
900.594	0.044199
910.236	0.0511124
919.879	0.0628141
929.521	0.0675626
939.163	0.0744272
948.806	0.0839102
958.448	0.0865326
968.09	0.0711344
977.733	0.0623041
987.375	0.056824
997.017	0.0589129
1006.66	0.0640976
1016.3	0.0656726
1025.94	0.0590209
1035.59	0.0565389
1045.23	0.0597532
1054.87	0.0672002
1064.51	0.0736209
1074.16	0.0751789
1083.8	0.0777473
1093.44	0.0834944
1103.08	0.0947019
1112.72	0.106136
1122.37	0.116178
1132.01	0.131089
1141.65	0.149134
1151.3	0.166821
1160.94	0.183543
1170.58	0.199623
1180.22	0.214202
1189.86	0.229587
1199.51	0.241861
1209.15	0.248632
1218.79	0.247766
1228.43	0.240814
1238.08	0.228456
1247.72	0.213287
1257.36	0.197227
1267	0.186743
1276.64	0.172348
1286.29	0.151591
1295.93	0.132898
1305.57	0.116899
1315.21	0.10866
1324.86	0.107163
1334.5	0.111334
1344.14	0.121393
1353.78	0.137898
1363.43	0.155454
1373.07	0.168672
1382.71	0.174652
1392.35	0.175
1401.99	0.171965
1411.64	0.165503
1421.28	0.155982
1430.92	0.148986
1440.57	0.140429
1450.21	0.12978
1459.85	0.116985
1469.49	0.104217
1479.13	0.0926562
1488.78	0.0819272
1498.42	0.0723561
1508.06	0.0642281
1517.7	0.0573743
1527.35	0.04738
1536.99	0.0388672
1546.63	0.0333346
1556.27	0.0288769
1565.91	0.0255946
1575.56	0.0229836
1585.2	0.022056
1594.84	0.0211009
1604.48	0.0206223
1614.13	0.0200026
1623.77	0.0194166
1633.41	0.018071
1643.05	0.0185052
1652.7	0.0179761
1662.34	0.0174736
1671.98	0.0169565
1681.62	0.0165641
1691.27	0.0167286
1700.91	0.0155587
1710.55	0.0155943
1720.19	0.0157499
1729.84	0.0160427
1739.48	0.0153147
1749.12	0.0150373
1758.76	0.0151026
1768.4	0.0158185
1778.05	0.0158201
1787.69	0.0170749
1797.33	0.0165015
1806.97	0.0168885
1816.62	0.0163799
1826.26	0.0165201
1835.9	0.0167983
1845.54	0.0179194
1855.18	0.0170624
1864.83	0.0168041
1874.47	0.0184241
1884.11	0.0184759
1893.75	0.0180624
1903.4	0.0195935
1913.04	0.0200087
1922.68	0.0198388
1932.32	0.0206699
1941.97	0.0185029
1951.61	0.0209349
1961.25	0.0192345
1970.89	0.0171366
1980.54	0.021043
1990.18	0.0157482
1999.82	0.0196901
2009.46	0.0175002
2019.11	0.0207414
2028.75	0.0190927
2038.39	0.0214123
2048.03	0.0235809
2057.67	0.0218842
2067.32	0.0235088
2076.96	0.0270315
2086.6	0.0250569
2096.24	0.0241262
2105.89	0.0243092
2115.53	0.0258544
2125.17	0.0240926
2134.81	0.0212172
2144.45	0.0231383
2154.1	0.0230541
2163.74	0.0225574
2173.38	0.0199127
2183.02	0.0243178
2192.67	0.0230002
2202.31	0.0250613
2211.95	0.0226147
2221.59	0.0221755
2231.24	0.025187
2240.88	0.0235238
2250.52	0.0278796
2260.16	0.0235296
2269.8	0.0262092
2279.45	0.0272905
2289.09	0.0295083
2298.73	0.028704
2308.38	0.0286166
2318.02	0.0290579
2327.66	0.0297969
2337.3	0.0293416
2346.94	0.0288333
2356.59	0.0288903
2366.23	0.0286931
2375.87	0.0289944
2385.51	0.0290028
2395.16	0.0279304
2404.8	0.0278743
2414.44	0.0281612
2424.08	0.0294613
2433.72	0.0295024
2443.37	0.0300369
2453.01	0.0306968
2462.65	0.0298571
2472.29	0.0295664
2481.94	0.0297533
2491.58	0.0322892
2501.22	0.0322244
2510.86	0.0317529
2520.51	0.0338656
2530.15	0.0322187
2539.79	0.0348133
2549.43	0.0343066
2559.07	0.0334557
2568.72	0.0339409
2578.36	0.0335823
2588	0.0346551
2597.64	0.0363585
2607.29	0.0364959
2616.93	0.0362142
2626.57	0.0380106
2636.21	0.0374508
2645.86	0.0376495
2655.5	0.0373186
2665.14	0.0367473
2674.78	0.0375734
2684.43	0.0377965
2694.07	0.0366941
2703.71	0.0370527
2713.35	0.0379544
2722.99	0.0375666
2732.64	0.0378979
2742.28	0.0383819
2751.92	0.0390573
2761.56	0.039102
2771.21	0.0403601
2780.85	0.0400323
2790.49	0.040421
2800.13	0.0412574
2809.78	0.0415384
2819.42	0.0411757
2829.06	0.0416034
2838.7	0.0425481
2848.34	0.0408027
2857.99	0.0417693
2867.63	0.0455868
2877.27	0.0443438
2886.91	0.0427131
2896.56	0.045003
2906.2	0.0461318
2915.84	0.0442195
2925.48	0.0447137
2935.13	0.0476084
2944.77	0.0474583
2954.41	0.049945
2964.05	0.0493032
2973.7	0.0499063
2983.34	0.0503524
2992.98	0.0508346
3002.62	0.051494
3012.26	0.0515807
3021.91	0.0531946
3031.55	0.0523453
3041.19	0.0526242
3050.83	0.0536737
3060.48	0.0553832
3070.12	0.0543059
3079.76	0.0569795
3089.4	0.0547745
3099.05	0.056549
3108.69	0.0579965
3118.33	0.0573273
3127.97	0.0583219
3137.61	0.0598222
3147.26	0.0573328
3156.9	0.060723
3166.54	0.0617468
3176.18	0.0612104
3185.83	0.0616352
3195.47	0.063209
3205.11	0.0631913
3214.75	0.0649741
3224.4	0.0633444
3234.04	0.0653454
3243.68	0.062899
3253.32	0.0624978
3262.97	0.0644552
3272.61	0.0648307
3282.25	0.0655863
3291.89	0.0642518
3301.53	0.0665493
3311.18	0.0647531
3320.82	0.0703374
3330.46	0.0669151
3340.1	0.0690187
3349.75	0.0671314
3359.39	0.0697874
3369.03	0.0672677
3378.67	0.0696566
3388.32	0.0705838
3397.96	0.0701836
3407.6	0.0720484
3417.24	0.073663
3426.89	0.0729732
3436.53	0.0718932
3446.17	0.0717745
3455.81	0.0741523
3465.45	0.0720562
3475.1	0.0744344
3484.74	0.0767845
3494.38	0.0714926
3504.02	0.0718936
3513.67	0.0723152
3523.31	0.0719131
3532.95	0.0706295
3542.59	0.0737631
3552.24	0.0772267
3561.88	0.083213
3571.52	0.0709912
3581.16	0.0643355
3590.8	0.0618649
3600.45	0.0604293
3610.09	0.0604694
3619.73	0.056998
3629.37	0.0597363
3639.02	0.0570266
3648.66	0.0531928
3658.3	0.0594115
3667.94	0.0560448
3677.59	0.0466934
3687.23	0.0499668
3696.87	0.0489692
3706.51	0.0519503
3716.16	0.0483309
3725.8	0.0489884
3735.44	0.0486406
3745.08	0.0504776
3754.72	0.049103
3764.37	0.0503415
3774.01	0.049144
3783.65	0.049239
3793.29	0.0506977
3802.94	0.0517017
3812.58	0.0469821
3822.22	0.049608
3831.86	0.0504973
3841.51	0.0520642
3851.15	0.0494876
3860.79	0.0509803
3870.43	0.0504211
3880.07	0.0493341
3889.72	0.0488898
3899.36	0.0529584
3909	0.052298
3918.64	0.0497246
3928.29	0.0511527
3937.93	0.0537387
3947.57	0.0547359
3957.21	0.0560211
3966.86	0.0530887
3976.5	0.0464464
3986.14	0.0531592
3995.78	0.0540663
