Measurement: Infrared, Infrared Data Processed
Mineral: Willemite
Rruff sample: R050652
Ideal chemistry: Zn^2+^_2_SiO_4_
Locality: Franklin Furnace, Sussex County, New Jersey, USA
Source: University of Arizona Mineral Museum
Description: Parallel aggregate of colorless acicular crystals
Measured chemistry: (Zn_1.99_Mn_0.01_)_Î£=2_Si_1.00_O_4_
x	intensity
50.1401	0.0253121
52.0686	0.0136218
53.9971	0.016047
55.9255	0.0173785
57.854	0.0200852
59.7825	0.0218909
61.7109	0.020145
63.6394	0.0190646
65.5679	0.018948
67.4963	0.0214371
69.4248	0.0201198
71.3533	0.0192374
73.2817	0.0211107
75.2102	0.0249052
77.1387	0.0262976
79.0671	0.0260421
80.9956	0.0252434
82.9241	0.0250485
84.8525	0.0245239
86.781	0.0233547
88.7095	0.0242749
90.6379	0.0259192
92.5664	0.0264103
94.4948	0.0284617
96.4233	0.030799
98.3518	0.0313562
100.28	0.0303802
102.209	0.0310371
104.137	0.0324737
106.066	0.0335894
107.994	0.0346938
109.923	0.0356273
111.851	0.0376282
113.779	0.0386942
115.708	0.0372825
117.636	0.037265
119.565	0.038222
121.493	0.039361
123.422	0.0396695
125.35	0.0409301
127.279	0.0429995
129.207	0.0451776
131.136	0.0466217
133.064	0.0487357
134.993	0.0503646
136.921	0.0521341
138.85	0.0534567
140.778	0.0547407
142.707	0.0556909
144.635	0.057034
146.563	0.057621
148.492	0.0584993
150.42	0.0581339
152.349	0.0575473
154.277	0.0541193
156.206	0.0496029
158.134	0.0473044
160.063	0.0492849
161.991	0.0534397
163.92	0.0574223
165.848	0.0551129
167.777	0.045543
169.705	0.034399
171.633	0.0289032
173.562	0.0311434
175.49	0.0367752
177.419	0.0420217
179.347	0.0458616
181.276	0.049419
183.204	0.0521012
185.133	0.0543269
187.061	0.0563331
188.99	0.0579153
190.918	0.0600466
192.847	0.0623626
194.775	0.0640825
196.704	0.0654925
198.632	0.0664329
200.56	0.0660605
202.489	0.0661334
204.417	0.0674538
206.346	0.0693336
208.274	0.0712125
210.203	0.0732351
212.131	0.0748991
214.06	0.075855
215.988	0.0745782
217.917	0.070868
219.845	0.0666376
221.774	0.0636337
223.702	0.0624378
225.631	0.0637953
227.559	0.0649111
229.488	0.0611883
231.416	0.0586148
233.344	0.0619952
235.273	0.0672427
237.201	0.0715526
239.13	0.0749676
241.058	0.0777034
242.987	0.0798704
244.915	0.0815846
246.844	0.0830477
248.772	0.0848235
250.701	0.0861103
252.629	0.0869957
254.558	0.0874611
256.486	0.0878205
258.414	0.087717
260.343	0.0874892
262.271	0.0859026
264.2	0.0823546
266.128	0.0776596
268.057	0.0726355
269.985	0.0675636
271.914	0.0625475
273.842	0.0572879
275.771	0.0524623
277.699	0.0481907
279.628	0.0441419
281.556	0.0409221
283.485	0.0379709
285.413	0.034572
287.341	0.0313085
289.27	0.0284585
291.198	0.0266311
293.127	0.0265524
295.055	0.0281697
296.984	0.0298389
298.912	0.0294684
300.841	0.0278612
302.769	0.026759
304.698	0.0262429
306.626	0.0262558
308.555	0.0264377
310.483	0.0268617
312.411	0.0276503
314.34	0.028632
316.269	0.0298733
318.197	0.0309844
320.125	0.0322239
322.054	0.0342174
323.982	0.0362645
325.911	0.038643
327.839	0.0409027
329.768	0.0429514
331.696	0.0450695
333.625	0.047536
335.553	0.0502884
337.482	0.0529879
339.41	0.0558406
341.339	0.0588416
343.267	0.0613767
345.195	0.0642346
347.124	0.0673325
349.052	0.0700742
350.981	0.0729118
352.909	0.0760552
354.838	0.0788496
356.766	0.0813204
358.695	0.0843368
360.623	0.087418
362.552	0.0902177
364.48	0.0930242
366.409	0.0957761
368.337	0.0981097
370.265	0.10015
372.194	0.101787
374.122	0.102321
376.051	0.101576
377.979	0.0993181
379.908	0.0959842
381.836	0.0918701
383.765	0.0878682
385.693	0.0835586
387.622	0.0796242
389.55	0.0770216
391.479	0.075989
393.407	0.0756529
395.336	0.0749223
397.264	0.072542
399.192	0.0680218
401.121	0.0619668
403.049	0.056054
404.978	0.0511081
406.906	0.0466665
408.835	0.0428848
410.763	0.0401987
412.692	0.0382844
414.62	0.0371082
416.549	0.0365731
418.477	0.0362651
420.406	0.0357265
422.334	0.0353204
424.262	0.0351726
426.191	0.0349847
428.12	0.0350729
430.048	0.0356121
431.976	0.0364445
433.905	0.037501
435.833	0.0386557
437.762	0.0400406
439.69	0.0414952
441.619	0.0428916
443.547	0.0450745
445.476	0.0481595
447.404	0.0516477
449.333	0.0557814
451.261	0.0610187
453.19	0.0669789
455.118	0.0735907
457.046	0.0794207
458.975	0.0814225
460.903	0.0759359
462.832	0.0650552
464.76	0.0558206
466.689	0.0508711
468.617	0.0489807
470.546	0.0486382
472.474	0.0490767
474.403	0.0500407
476.331	0.0512145
478.26	0.0521869
480.188	0.0536268
482.116	0.0552698
484.045	0.0570413
485.974	0.0582182
487.902	0.0597643
489.83	0.0615268
491.759	0.0631612
493.687	0.0649141
495.616	0.0669209
497.544	0.0686928
499.473	0.0705807
501.401	0.0721941
503.33	0.0734087
505.258	0.0747249
507.187	0.0761686
509.115	0.0776267
511.043	0.0792566
512.972	0.0809951
514.9	0.083026
516.829	0.0850404
518.757	0.0866857
520.686	0.0887331
522.614	0.090671
524.543	0.0923951
526.471	0.0940177
528.4	0.0959548
530.328	0.0977534
532.257	0.099717
534.185	0.101766
536.114	0.103518
538.042	0.105543
539.971	0.107909
541.899	0.110193
543.827	0.11229
545.756	0.114435
547.684	0.117007
549.613	0.119557
551.541	0.122031
553.47	0.124737
555.398	0.127715
557.327	0.130433
559.255	0.132954
561.184	0.135903
563.112	0.138629
565.041	0.141332
566.969	0.143423
568.898	0.145076
570.826	0.146614
572.755	0.147331
574.683	0.146422
576.611	0.143439
578.54	0.138633
580.468	0.133772
582.397	0.130249
584.325	0.12818
586.254	0.125893
588.182	0.12297
590.111	0.118978
592.039	0.114311
593.968	0.109996
595.896	0.106657
597.824	0.104491
599.753	0.103544
601.682	0.104457
603.61	0.106662
605.538	0.108125
607.467	0.110312
609.395	0.112158
611.324	0.110977
613.252	0.10776
615.181	0.103033
617.109	0.0961403
619.038	0.0882645
620.966	0.0804323
622.894	0.0731288
624.823	0.0667651
626.751	0.0615492
628.68	0.0577968
630.608	0.0552724
632.537	0.0534222
634.465	0.0516897
636.394	0.0500892
638.322	0.0488681
640.251	0.048017
642.179	0.04781
644.108	0.0477769
646.036	0.0473113
647.965	0.0469967
649.893	0.0470826
651.822	0.0472863
653.75	0.0474626
655.678	0.0478592
657.607	0.0486105
659.535	0.0491593
661.464	0.0491249
663.392	0.049132
665.321	0.0495324
667.249	0.0503499
669.178	0.051054
671.106	0.0513199
673.035	0.0511815
674.963	0.0515109
676.892	0.0523478
678.82	0.0525688
680.749	0.052631
682.677	0.0526551
684.606	0.0526714
686.534	0.0528206
688.462	0.0533669
690.391	0.054107
692.319	0.0551245
694.248	0.0561046
696.176	0.0557563
698.105	0.0566857
700.033	0.0580721
