Measurement: Infrared, Infrared Data Processed
Mineral: Wulfenite
Rruff sample: R050501
Ideal chemistry: Pb^2+^Mo^6+^O_4_
Locality: Los Lamentos, Chihuahua, Mexico
Source: California Institute of Technology
Description: Orange tabular crystal
Measured chemistry: Pb_1.00_Mo_1.00_O_4_
x	intensity
399.193	0.390579
408.835	0.430489
418.477	0.468357
428.12	0.501761
437.762	0.529938
447.404	0.562491
457.047	0.577978
466.689	0.595878
476.331	0.605987
485.974	0.620673
495.616	0.635938
505.258	0.651915
514.901	0.667564
524.543	0.6766
534.185	0.683869
543.828	0.691612
553.47	0.70202
563.112	0.704907
572.755	0.713953
582.397	0.720171
592.039	0.727253
601.682	0.739577
611.324	0.748141
620.966	0.756629
630.609	0.767884
640.251	0.78327
649.893	0.78997
659.536	0.79747
669.178	0.802281
678.82	0.805018
688.463	0.810831
698.105	0.809438
707.747	0.811043
717.39	0.812778
727.032	0.797719
736.674	0.769036
746.317	0.693306
755.959	0.572505
765.601	0.493158
775.244	0.430414
784.886	0.375628
794.528	0.327534
804.171	0.291031
813.813	0.261524
823.455	0.231105
833.098	0.196344
842.74	0.154398
852.382	0.117113
862.025	0.0843284
871.667	0.0599308
881.309	0.0296446
890.952	0.0151399
900.594	0.0122481
910.236	0.0113221
919.879	0.0112065
929.521	0.0103191
939.163	0.00908685
948.806	0.00849633
958.448	0.00762765
968.09	0.00626604
977.733	0.0070314
987.375	0.00728474
997.017	0.00809474
1006.66	0.00950244
1016.3	0.0113875
1025.94	0.0132158
1035.59	0.0157603
1045.23	0.0178261
1054.87	0.0197839
1064.51	0.0216053
1074.16	0.0232955
1083.8	0.0249219
1093.44	0.0270187
1103.08	0.0290549
1112.72	0.0314401
1122.37	0.0330065
1132.01	0.0344699
1141.65	0.036251
1151.3	0.0381169
1160.94	0.040571
1170.58	0.0427107
1180.22	0.0452074
1189.86	0.0475454
1199.51	0.049483
1209.15	0.0517766
1218.79	0.054071
1228.43	0.0562921
1238.08	0.0583931
1247.72	0.0604613
1257.36	0.062711
1267	0.0650598
1276.64	0.0675341
1286.29	0.0697263
1295.93	0.0716034
1305.57	0.0735486
1315.21	0.0753603
1324.86	0.0771758
1334.5	0.0790994
1344.14	0.0809213
1353.78	0.0829439
1363.43	0.0848281
1373.07	0.0869421
1382.71	0.0887032
1392.35	0.0907186
1401.99	0.0924013
1411.64	0.0942036
1421.28	0.0954513
1430.92	0.0971564
1440.57	0.0988548
1450.21	0.100606
1459.85	0.102259
1469.49	0.103829
1479.13	0.106475
1488.78	0.109091
1498.42	0.109642
1508.06	0.109326
1517.7	0.109954
1527.35	0.11082
1536.99	0.111805
1546.63	0.112471
1556.27	0.113141
1565.91	0.114095
1575.56	0.115834
1585.2	0.117669
1594.84	0.119951
1604.48	0.123028
1614.13	0.12297
1623.77	0.120069
1633.41	0.118743
1643.05	0.11812
1652.7	0.11885
1662.34	0.119015
1671.98	0.119374
1681.62	0.119882
1691.27	0.120889
1700.91	0.121882
1710.55	0.122161
1720.19	0.122703
1729.84	0.122935
1739.48	0.120962
1749.12	0.12015
1758.76	0.121432
1768.4	0.12226
1778.05	0.123086
1787.69	0.123662
1797.33	0.123876
1806.97	0.125031
1816.62	0.12506
1826.26	0.125634
1835.9	0.125806
1845.54	0.126778
1855.18	0.126368
1864.83	0.127331
1874.47	0.128023
1884.11	0.128156
1893.75	0.128596
1903.4	0.128521
1913.04	0.127826
1922.68	0.128789
1932.32	0.129481
1941.97	0.129672
1951.61	0.130272
1961.25	0.130135
1970.89	0.129051
1980.54	0.130668
1990.18	0.132013
1999.82	0.130874
2009.46	0.130389
2019.11	0.13006
2028.75	0.131842
2038.39	0.133339
2048.03	0.132673
2057.67	0.132885
2067.32	0.133294
2076.96	0.133378
2086.6	0.132882
2096.24	0.133451
2105.89	0.133709
2115.53	0.134788
2125.17	0.133816
2134.81	0.131777
2144.45	0.134329
2154.1	0.130338
2163.74	0.133136
2173.38	0.133073
2183.02	0.1321
2192.67	0.133908
2202.31	0.135598
2211.95	0.13387
2221.59	0.135198
2231.24	0.13571
2240.88	0.134655
2250.52	0.134748
2260.16	0.136344
2269.8	0.136714
2279.45	0.136236
2289.09	0.136087
2298.73	0.136581
2308.38	0.136709
2318.02	0.137187
2327.66	0.136424
2337.3	0.13712
2346.94	0.136088
2356.59	0.137249
2366.23	0.136986
2375.87	0.136151
2385.51	0.136389
2395.16	0.13603
2404.8	0.136417
2414.44	0.136002
2424.08	0.136819
2433.72	0.136858
2443.37	0.137228
2453.01	0.137275
2462.65	0.136601
2472.29	0.137283
2481.94	0.137468
2491.58	0.136879
2501.22	0.136794
2510.86	0.136948
2520.51	0.136906
2530.15	0.136741
2539.79	0.136822
2549.43	0.136665
2559.07	0.13652
2568.72	0.136183
2578.36	0.136412
2588	0.137237
2597.64	0.136866
2607.29	0.136746
2616.93	0.137617
2626.57	0.136821
2636.21	0.137007
2645.86	0.136799
2655.5	0.136554
2665.14	0.135874
2674.78	0.136246
2684.43	0.136024
2694.07	0.135921
2703.71	0.136524
2713.35	0.136445
2722.99	0.136638
2732.64	0.136465
2742.28	0.136739
2751.92	0.136136
2761.56	0.136177
2771.21	0.13619
2780.85	0.136444
2790.49	0.136881
2800.13	0.136621
2809.78	0.136263
2819.42	0.136093
2829.06	0.136326
2838.7	0.136795
2848.34	0.13524
2857.99	0.135422
2867.63	0.135616
2877.27	0.135905
2886.91	0.136426
2896.56	0.136289
2906.2	0.136127
2915.84	0.134521
2925.48	0.13385
2935.13	0.134145
2944.77	0.134864
2954.41	0.134618
2964.05	0.134685
2973.7	0.134254
2983.34	0.135114
2992.98	0.134938
3002.62	0.134874
3012.26	0.134461
3021.91	0.134547
3031.55	0.134365
3041.19	0.134051
3050.83	0.134982
3060.48	0.134672
3070.12	0.134515
3079.76	0.134509
3089.4	0.134318
3099.05	0.134683
3108.69	0.135097
3118.33	0.135481
3127.97	0.134078
3137.61	0.133911
3147.26	0.13472
3156.9	0.135248
3166.54	0.13505
3176.18	0.134122
3185.83	0.134542
3195.47	0.13485
3205.11	0.135096
3214.75	0.13438
3224.4	0.134371
3234.04	0.13377
3243.68	0.134424
3253.32	0.134431
3262.97	0.134449
3272.61	0.134109
3282.25	0.134409
3291.89	0.134011
3301.53	0.134385
3311.18	0.133814
3320.82	0.134058
3330.46	0.134513
3340.1	0.133704
3349.75	0.134696
3359.39	0.133911
3369.03	0.133739
3378.67	0.133401
3388.32	0.13433
3397.96	0.133289
3407.6	0.133955
3417.24	0.13399
3426.89	0.133792
3436.53	0.13372
3446.17	0.133213
3455.81	0.133301
3465.45	0.133354
3475.1	0.132774
3484.74	0.1326
3494.38	0.133096
3504.02	0.131921
3513.67	0.133008
3523.31	0.132555
3532.95	0.133126
3542.59	0.132332
3552.24	0.131445
3561.88	0.130468
3571.52	0.131954
3581.16	0.130915
3590.8	0.130948
3600.45	0.130786
3610.09	0.132425
3619.73	0.132481
3629.37	0.132112
3639.02	0.131149
3648.66	0.130924
3658.3	0.130549
3667.94	0.132031
3677.59	0.131369
3687.23	0.132352
3696.87	0.13209
3706.51	0.130397
3716.16	0.131165
3725.8	0.132604
3735.44	0.130555
3745.08	0.131204
3754.72	0.131756
3764.37	0.132039
3774.01	0.131704
3783.65	0.130365
3793.29	0.130641
3802.94	0.131388
3812.58	0.130566
3822.22	0.131161
3831.86	0.131687
3841.51	0.132507
3851.15	0.130683
3860.79	0.131087
3870.43	0.130898
3880.07	0.130483
3889.72	0.131666
3899.36	0.130062
3909	0.130776
3918.64	0.13066
3928.29	0.131988
3937.93	0.131474
3947.57	0.131323
3957.21	0.130858
3966.86	0.130846
3976.5	0.131616
3986.14	0.132006
3995.78	0.131663
