Measurement: Infrared, Infrared Data Processed
Mineral: Xanthoxenite
Rruff sample: R050234
Ideal chemistry: Ca_4_Fe^3+^_2_(PO_4_)_4_(OH)_2_3H_2_O
Locality: Palermo mine, North Groton, Grafton County, New Hampshire, USA
Source: Marcus Origlieri
Description: Pale-yellow massive
x	intensity
374.123	0.0599401
383.765	0.0527408
393.407	0.0435614
403.05	0.0425927
412.692	0.0444104
422.334	0.0512536
431.976	0.0590854
441.619	0.0684242
451.261	0.0692846
460.904	0.0632656
470.546	0.0633617
480.188	0.0602696
489.83	0.0595785
499.473	0.0643375
509.115	0.0749913
518.758	0.0897951
528.4	0.11314
538.042	0.151563
547.684	0.194324
557.327	0.182763
566.969	0.142144
576.611	0.110907
586.254	0.105109
595.896	0.101513
605.538	0.0974401
615.181	0.0794742
624.823	0.0618846
634.466	0.0550734
644.108	0.0539361
653.75	0.0528946
663.393	0.0490256
673.035	0.0454828
682.677	0.0430236
692.319	0.0421656
701.962	0.0420495
711.604	0.0427256
721.246	0.0444798
730.889	0.0471464
740.531	0.0493723
750.173	0.0504156
759.816	0.0513491
769.458	0.0520889
779.101	0.0531386
788.743	0.0544744
798.385	0.0572618
808.028	0.0612266
817.67	0.0666913
827.312	0.0747465
836.955	0.0848102
846.597	0.0975493
856.239	0.112693
865.881	0.131314
875.524	0.152287
885.166	0.176974
894.808	0.203968
904.451	0.229684
914.093	0.248774
923.736	0.253309
933.378	0.246589
943.02	0.238428
952.663	0.234306
962.305	0.229995
971.947	0.230096
981.59	0.21762
991.232	0.202898
1000.87	0.18959
1010.52	0.179602
1020.16	0.1757
1029.8	0.177939
1039.44	0.181669
1049.09	0.174183
1058.73	0.161954
1068.37	0.151792
1078.01	0.135501
1087.65	0.121663
1097.3	0.119001
1106.94	0.123579
1116.58	0.119942
1126.22	0.124324
1135.87	0.104464
1145.51	0.0729967
1155.15	0.0451634
1164.79	0.0272749
1174.44	0.016772
1184.08	0.0116732
1193.72	0.00937861
1203.36	0.00810886
1213.01	0.00706468
1222.65	0.00644882
1232.29	0.00612463
1241.93	0.00595632
1251.58	0.0057705
1261.22	0.00587342
1270.86	0.00603195
1280.5	0.00598969
1290.14	0.00598946
1299.79	0.00593507
1309.43	0.00629398
1319.07	0.00647333
1328.71	0.00654498
1338.36	0.00687045
1348	0.00693937
1357.64	0.00734752
1367.28	0.00756817
1376.92	0.00804505
1386.57	0.00837445
1396.21	0.0088464
1405.85	0.00936474
1415.49	0.00986835
1425.14	0.0102272
1434.78	0.0106355
1444.42	0.0110721
1454.06	0.011464
1463.71	0.0117311
1473.35	0.0119977
1482.99	0.0123795
1492.63	0.0132699
1502.28	0.0139477
1511.92	0.0145639
1521.56	0.0151752
1531.2	0.0155356
1540.85	0.0166906
1550.49	0.0173047
1560.13	0.0190429
1569.77	0.0201958
1579.41	0.02195
1589.06	0.0227011
1598.7	0.0218999
1608.34	0.0204706
1617.98	0.0194921
1627.63	0.0189047
1637.27	0.0186976
1646.91	0.0180403
1656.55	0.0169318
1666.19	0.0159828
1675.84	0.0152861
1685.48	0.0147738
1695.12	0.0140363
1704.77	0.013275
1714.41	0.0130875
1724.05	0.0127561
1733.69	0.0125553
1743.33	0.0114976
1752.98	0.0116351
1762.62	0.0121954
1772.26	0.0126733
1781.9	0.0126965
1791.55	0.013258
1801.19	0.0132914
1810.83	0.0133757
1820.47	0.0136252
1830.12	0.0139839
1839.76	0.0141281
1849.4	0.0140294
1859.04	0.0141424
1868.68	0.0139362
1878.33	0.0138657
1887.97	0.0133162
1897.61	0.0133538
1907.25	0.0132189
1916.9	0.0132254
1926.54	0.0127006
1936.18	0.011996
1945.82	0.0120644
1955.46	0.0111483
1965.11	0.0120071
1974.75	0.0113479
1984.39	0.0120806
1994.04	0.0117129
2003.68	0.0109961
2013.32	0.0132062
2022.96	0.0121744
2032.6	0.0127519
2042.25	0.0121117
2051.89	0.0129046
2061.53	0.0121761
2071.17	0.0119004
2080.82	0.0118604
2090.46	0.0120377
2100.1	0.0118864
2109.74	0.0122512
2119.39	0.0119917
2129.03	0.0119453
2138.67	0.0123511
2148.31	0.0126302
2157.95	0.0128853
2167.6	0.0146814
2177.24	0.014356
2186.88	0.0151125
2196.52	0.0143503
2206.17	0.0145785
2215.81	0.0144957
2225.45	0.0143527
2235.09	0.0153017
2244.74	0.0161882
2254.38	0.0164569
2264.02	0.0159776
2273.66	0.0173989
2283.3	0.0183581
2292.95	0.0181913
2302.59	0.0184237
2312.23	0.0187248
2321.87	0.0198488
2331.52	0.019319
2341.16	0.0193673
2350.8	0.0186631
2360.44	0.0194959
2370.09	0.0190249
2379.73	0.0181563
2389.37	0.0180038
2399.01	0.0180523
2408.66	0.0183786
2418.3	0.0183722
2427.94	0.0179291
2437.58	0.0179567
2447.22	0.0184496
2456.87	0.0180695
2466.51	0.0181242
2476.15	0.0177411
2485.79	0.01815
2495.44	0.0185685
2505.08	0.0188371
2514.72	0.0190792
2524.36	0.0190412
2534.01	0.0194269
2543.65	0.0201097
2553.29	0.0200184
2562.93	0.0210129
2572.57	0.021105
2582.22	0.0218642
2591.86	0.0222742
2601.5	0.0224611
2611.14	0.0231513
2620.79	0.0235602
2630.43	0.023202
2640.07	0.0238019
2649.71	0.0242245
2659.36	0.0243332
2669	0.0244791
2678.64	0.0248391
2688.28	0.0252633
2697.93	0.0258559
2707.57	0.0261287
2717.21	0.0265083
2726.85	0.0268279
2736.49	0.0274332
2746.14	0.0277705
2755.78	0.0283369
2765.42	0.0290048
2775.06	0.0286105
2784.71	0.0295228
2794.35	0.0295859
2803.99	0.0302333
2813.63	0.030606
2823.28	0.0312875
2832.92	0.0318041
2842.56	0.032493
2852.2	0.0311616
2861.84	0.0324468
2871.49	0.032611
2881.13	0.0333117
2890.77	0.0332794
2900.41	0.033911
2910.06	0.0344513
2919.7	0.033673
2929.34	0.0341145
2938.98	0.0343187
2948.62	0.0349195
2958.27	0.0356051
2967.91	0.0360207
2977.55	0.0352444
2987.2	0.0354756
2996.84	0.0358799
3006.48	0.0362613
3016.12	0.0371579
3025.76	0.0377055
3035.41	0.0381378
3045.05	0.0386878
3054.69	0.0391748
3064.33	0.039762
3073.98	0.0400707
3083.62	0.040444
3093.26	0.0416492
3102.9	0.041525
3112.55	0.0418815
3122.19	0.0423928
3131.83	0.0425531
3141.47	0.0422032
3151.11	0.0429751
3160.76	0.0433054
3170.4	0.0432407
3180.04	0.0429761
3189.68	0.0439666
3199.33	0.0439375
3208.97	0.0448761
3218.61	0.0443567
3228.25	0.0447516
3237.9	0.0448634
3247.54	0.0445016
3257.18	0.044658
3266.82	0.0446513
3276.47	0.0452844
3286.11	0.0461853
3295.75	0.0457511
3305.39	0.0483085
3315.03	0.0494077
3324.68	0.0513435
3334.32	0.0528039
3343.96	0.054388
3353.6	0.0538107
3363.25	0.0516308
3372.89	0.0468003
3382.53	0.0426395
3392.17	0.0387067
3401.82	0.03463
3411.46	0.0307548
3421.1	0.0288941
3430.74	0.0262663
3440.39	0.023675
3450.03	0.0222294
3459.67	0.0198845
3469.31	0.0173009
3478.95	0.0149592
3488.6	0.0128823
3498.24	0.0116667
3507.88	0.0107197
3517.52	0.00864776
3527.17	0.00714547
3536.81	0.00680204
3546.45	0.00617507
3556.09	0.00421632
3565.74	0.00456232
3575.38	0.0027392
3585.02	0.00282807
3594.66	0.0012477
3604.3	0.000649127
3613.95	0.00069109
3623.59	-0.000482214
3633.23	-0.000793018
3642.87	-0.00177517
3652.52	-0.00169647
3662.16	-0.00238919
3671.8	-0.00227487
3681.44	-0.00207694
3691.09	-0.0015389
3700.73	-0.00163309
3710.37	-0.00204898
3720.01	-0.00245164
3729.66	-0.00188119
3739.3	-0.00207403
3748.94	-0.00189091
3758.58	-0.00225197
3768.22	-0.00131161
3777.87	-0.0025647
3787.51	-0.00202294
3797.15	-0.00197012
3806.79	-0.00187428
3816.44	-0.00146512
3826.08	-0.00241261
3835.72	-0.00086556
3845.36	-0.00163551
3855.01	-0.000837958
3864.65	-0.00198966
3874.29	-0.00215697
3883.93	-0.001619
3893.57	-0.00237349
3903.22	-0.00114427
3912.86	-0.00179117
3922.5	-0.0021431
3932.14	-0.00176015
3941.79	-0.00183504
3951.43	-0.00219638
3961.07	-0.0012965
3970.71	-0.00225237
3980.36	-0.0018725
3990	-0.00164717
3999.64	-0.00193746
