Measurement: Infrared, Infrared Data Processed
Mineral: Xenotime-(Y)
Rruff sample: R050178
Ideal chemistry: Y^3+^PO_4_
Locality: Novo Horizonte, Bahia, Brazil
Source: Marcus Origlieri
Description: Brown crystal fragments
Measured chemistry: (Y_0.74_Dy_0.09_Gd_0.06_Er_0.04_Yb_0.02_Ho_0.01_Tb_0.01_Sm_0.01_Eu_0.01_)_Σ=1.00_(P_0.97_As_0.02_Si_0.01_)_Σ=1.00_O_4_
x	intensity
50.1401	0.00978723
52.0686	0.00557265
53.9971	0.00537247
55.9255	0.00737099
57.854	0.00817406
59.7825	0.00934084
61.7109	0.00898432
63.6394	0.0123962
65.5679	0.0136252
67.4963	0.0127063
69.4248	0.0117563
71.3533	0.0114141
73.2817	0.0129896
75.2102	0.0135363
77.1387	0.0135319
79.0671	0.0137059
80.9956	0.0141744
82.9241	0.0151396
84.8525	0.0153382
86.781	0.0156464
88.7095	0.0162475
90.6379	0.0163206
92.5664	0.0156717
94.4948	0.015769
96.4233	0.0164685
98.3518	0.0171289
100.28	0.0168784
102.209	0.017282
104.137	0.0180062
106.066	0.0187914
107.994	0.0189646
109.923	0.0191035
111.851	0.0193636
113.779	0.0195697
115.708	0.0195619
117.636	0.0200171
119.565	0.0206648
121.493	0.0212949
123.422	0.0217992
125.35	0.022396
127.279	0.0226585
129.207	0.0232775
131.136	0.0236748
133.064	0.023792
134.993	0.024194
136.921	0.0248899
138.85	0.0249526
140.778	0.0253148
142.707	0.025924
144.635	0.025905
146.563	0.0257852
148.492	0.0263564
150.42	0.0269329
152.349	0.0273183
154.277	0.0278564
156.206	0.0286908
158.134	0.0285874
160.063	0.0289887
161.991	0.0294068
163.92	0.0294894
165.848	0.0297266
167.777	0.0299925
169.705	0.0300562
171.633	0.0304038
173.562	0.0304684
175.49	0.0306206
177.419	0.0312546
179.347	0.0320332
181.276	0.0322086
183.204	0.0318484
185.133	0.031733
187.061	0.0321596
188.99	0.0326778
190.918	0.0332054
192.847	0.0334176
194.775	0.0338186
196.704	0.0342001
198.632	0.0344026
200.56	0.0346131
202.489	0.0350255
204.417	0.0354242
206.346	0.0360107
208.274	0.0363407
210.203	0.0363379
212.131	0.036553
214.06	0.0374309
215.988	0.037823
217.917	0.0377389
219.845	0.0376882
221.774	0.0378761
223.702	0.03816
225.631	0.0384372
227.559	0.0385574
229.488	0.038755
231.416	0.0388227
233.344	0.0388305
235.273	0.03865
237.201	0.038543
239.13	0.0385199
241.058	0.0383255
242.987	0.038105
244.915	0.0380604
246.844	0.0378562
248.772	0.0375364
250.701	0.0372714
252.629	0.0368341
254.558	0.0363077
256.486	0.035999
258.414	0.0354441
260.343	0.034814
262.271	0.0343969
264.2	0.0338571
266.128	0.0331931
268.057	0.0327709
269.985	0.0321406
271.914	0.0314285
273.842	0.0306246
275.771	0.0297687
277.699	0.0290461
279.628	0.0283448
281.556	0.027855
283.485	0.0277814
285.413	0.0281348
287.341	0.02882
289.27	0.0297182
291.198	0.0304052
293.127	0.0311686
295.055	0.03217
296.984	0.0330972
298.912	0.0338955
300.841	0.0347851
302.769	0.0357949
304.698	0.0363414
306.626	0.036992
308.555	0.0380236
310.483	0.0388758
312.411	0.0395662
314.34	0.0401087
316.269	0.0405673
318.197	0.0412353
320.125	0.0420644
322.054	0.0429108
323.982	0.0435668
325.911	0.0442019
327.839	0.0445331
329.768	0.0448509
331.696	0.045185
333.625	0.0454929
335.553	0.0454299
337.482	0.0449533
339.41	0.0442821
341.339	0.0435147
343.267	0.0425215
345.195	0.0414236
347.124	0.040383
349.052	0.0392516
350.981	0.03792
352.909	0.036712
354.838	0.0353414
356.766	0.0342249
358.695	0.0337034
360.623	0.0330384
362.552	0.0322416
364.48	0.0317359
366.409	0.0314077
368.337	0.0308986
370.265	0.0304463
372.194	0.0300273
374.122	0.029576
376.051	0.0291973
377.979	0.0287228
379.908	0.0281449
381.836	0.0277124
383.765	0.0273325
385.693	0.026791
387.622	0.0262011
389.55	0.0256713
391.479	0.0250489
393.407	0.0244091
395.336	0.0239343
397.264	0.0234698
399.192	0.0231019
401.121	0.0230185
403.049	0.0229198
404.978	0.0230164
406.906	0.0233453
408.835	0.0238192
410.763	0.0242872
412.692	0.0244813
414.62	0.0240245
416.549	0.0231277
418.477	0.0223032
420.406	0.0218647
422.334	0.0216487
424.262	0.0217431
426.191	0.0219346
428.12	0.0220155
430.048	0.0223381
431.976	0.0226695
433.905	0.0227412
435.833	0.0230792
437.762	0.0233179
439.69	0.0234283
441.619	0.0235567
443.547	0.0236379
445.476	0.0237966
447.404	0.0240352
449.333	0.0241911
451.261	0.0246558
453.19	0.025095
455.118	0.0253382
457.046	0.0257127
458.975	0.0261379
460.903	0.0266161
462.832	0.027096
464.76	0.0276723
466.689	0.0285455
468.617	0.0290372
470.546	0.0291198
472.474	0.029526
474.403	0.0302222
476.331	0.030881
478.26	0.031767
480.188	0.0327061
482.116	0.0336074
484.045	0.0340959
485.974	0.0344331
487.902	0.0347334
489.83	0.0354976
491.759	0.0365995
493.687	0.0377924
495.616	0.0387524
497.544	0.039655
499.473	0.0406015
501.401	0.0418824
503.33	0.0433748
505.258	0.0447754
507.187	0.0463286
509.115	0.0476113
511.043	0.049065
512.972	0.0510871
514.9	0.0533144
516.829	0.0558217
518.757	0.0578378
520.686	0.0583995
522.614	0.0576071
524.543	0.0555825
526.471	0.0526948
528.4	0.048975
530.328	0.0452075
532.257	0.0415638
534.185	0.0380264
536.114	0.0349686
538.042	0.0321526
539.971	0.0298128
541.899	0.0287088
543.827	0.0277733
545.756	0.027003
547.684	0.0270044
549.613	0.0271503
551.541	0.0272525
553.47	0.0275197
555.398	0.0275063
557.327	0.0274981
559.255	0.0276357
561.184	0.0277059
563.112	0.0279125
565.041	0.0281305
566.969	0.0286554
568.898	0.0289907
570.826	0.0291857
572.755	0.0296414
574.683	0.0301541
576.611	0.03071
578.54	0.031166
580.468	0.0315973
582.397	0.0319539
584.325	0.0322182
586.254	0.0325793
588.182	0.0330566
590.111	0.033501
592.039	0.0339358
593.968	0.0342714
595.896	0.03454
597.824	0.0346489
599.753	0.0348629
601.682	0.0350746
603.61	0.0354694
605.538	0.036046
607.467	0.0369757
609.395	0.0378023
611.324	0.0385173
613.252	0.0395525
615.181	0.040875
617.109	0.0422223
619.038	0.0432149
620.966	0.0445289
622.894	0.0464772
624.823	0.0487562
626.751	0.0513924
628.68	0.0543252
630.608	0.0571893
632.537	0.0596745
634.465	0.0616598
636.394	0.0630844
638.322	0.0634626
640.251	0.0625253
642.179	0.0611375
644.108	0.0594613
646.036	0.0571418
647.965	0.054592
649.893	0.0523306
651.822	0.0500346
653.75	0.0476837
655.678	0.0454326
657.607	0.0434547
659.535	0.0416439
661.464	0.040204
663.392	0.0392241
665.321	0.0386826
667.249	0.038383
669.178	0.0384532
671.106	0.0383487
673.035	0.0387596
674.963	0.0390063
676.892	0.0392277
678.82	0.0396619
680.749	0.0399654
682.677	0.0402565
684.606	0.0402167
686.534	0.0401174
688.462	0.0401331
690.391	0.0401649
692.319	0.040842
694.248	0.0411604
696.176	0.0415497
698.105	0.0420786
700.033	0.0416172
