Measurement: Infrared, Infrared Data Processed
Mineral: Yoderite
Rruff sample: R050277
Ideal chemistry: (MgAl_3_)(MgAl)Al_2_O_2_(SiO_4_)_4_(OH)_2_
Locality: Mautia Hill, Kongwa, Central Province, Tanzania
Source: Marcus Origlieri
Description: Blue anhedral lathlike grains
Measured chemistry: (Mg_1.95_Mn_0.05_)_Σ=2_(Al_5.54_Fe^3+^_0.46_)_Σ=6_Si_4.00_O_18_(OH)_2_
x	intensity
399.193	0.208672
408.835	0.227046
418.477	0.21294
428.12	0.220708
437.762	0.242039
447.404	0.245748
457.047	0.248523
466.689	0.239506
476.331	0.224224
485.974	0.226333
495.616	0.226393
505.258	0.211629
514.901	0.203989
524.543	0.212728
534.185	0.218157
543.828	0.224436
553.47	0.220126
563.112	0.224431
572.755	0.217953
582.397	0.200817
592.039	0.184141
601.682	0.169929
611.324	0.164209
620.966	0.147535
630.609	0.13202
640.251	0.134589
649.893	0.130365
659.536	0.12861
669.178	0.129769
678.82	0.123335
688.463	0.111424
698.105	0.101095
707.747	0.0851846
717.39	0.0815547
727.032	0.0910071
736.674	0.0941664
746.317	0.0863042
755.959	0.0725377
765.601	0.0576293
775.244	0.0499233
784.886	0.0446237
794.528	0.0452842
804.171	0.0435787
813.813	0.0382679
823.455	0.0410983
833.098	0.0467316
842.74	0.0555857
852.382	0.0693621
862.025	0.0910822
871.667	0.127742
881.309	0.162003
890.952	0.180539
900.594	0.195822
910.236	0.202229
919.879	0.204897
929.521	0.203601
939.163	0.205677
948.806	0.21593
958.448	0.217792
968.09	0.208213
977.733	0.214815
987.375	0.234352
997.017	0.240509
1006.66	0.235313
1016.3	0.220279
1025.94	0.19694
1035.59	0.169541
1045.23	0.138099
1054.87	0.115545
1064.51	0.0968996
1074.16	0.0785936
1083.8	0.0660085
1093.44	0.0556989
1103.08	0.0473999
1112.72	0.0404858
1122.37	0.0351131
1132.01	0.0309005
1141.65	0.0279957
1151.3	0.0242473
1160.94	0.022024
1170.58	0.019318
1180.22	0.0162965
1189.86	0.0145043
1199.51	0.0122495
1209.15	0.00946171
1218.79	0.0069351
1228.43	0.00594782
1238.08	0.00559303
1247.72	0.0046645
1257.36	0.00419601
1267	0.00427955
1276.64	0.00409091
1286.29	0.00415831
1295.93	0.00387467
1305.57	0.00376971
1315.21	0.00351787
1324.86	0.0039129
1334.5	0.00377392
1344.14	0.00362168
1353.78	0.00410334
1363.43	0.00427006
1373.07	0.00477111
1382.71	0.00460209
1392.35	0.00514132
1401.99	0.00592647
1411.64	0.00683146
1421.28	0.00799554
1430.92	0.00855316
1440.57	0.00921949
1450.21	0.00959049
1459.85	0.00909898
1469.49	0.00917953
1479.13	0.00891145
1488.78	0.00824828
1498.42	0.00799106
1508.06	0.0079744
1517.7	0.00752148
1527.35	0.00759921
1536.99	0.00781864
1546.63	0.00779003
1556.27	0.00844756
1565.91	0.00862311
1575.56	0.0091121
1585.2	0.00919496
1594.84	0.00930964
1604.48	0.0100148
1614.13	0.00999856
1623.77	0.0104493
1633.41	0.0108284
1643.05	0.0111499
1652.7	0.0114555
1662.34	0.0107763
1671.98	0.0102631
1681.62	0.00930972
1691.27	0.00878003
1700.91	0.00812917
1710.55	0.00761485
1720.19	0.00802353
1729.84	0.00837574
1739.48	0.00681823
1749.12	0.00497731
1758.76	0.00641131
1768.4	0.0069147
1778.05	0.00646997
1787.69	0.0070008
1797.33	0.00715768
1806.97	0.00724702
1816.62	0.00729006
1826.26	0.00734005
1835.9	0.00833914
1845.54	0.00772795
1855.18	0.00853389
1864.83	0.00811346
1874.47	0.0071546
1884.11	0.00721156
1893.75	0.00769247
1903.4	0.00648033
1913.04	0.00578135
1922.68	0.00653552
1932.32	0.00491798
1941.97	0.00571088
1951.61	0.00389957
1961.25	0.00442239
1970.89	0.000405044
1980.54	0.00366003
1990.18	0.00551785
1999.82	0.00211667
2009.46	0.000766824
2019.11	0.00365042
2028.75	-0.00135164
2038.39	0.00147658
2048.03	0.0032396
2057.67	0.00254588
2067.32	0.00472663
2076.96	0.00546055
2086.6	0.00623019
2096.24	0.00460991
2105.89	0.00668868
2115.53	0.00612962
2125.17	0.00508467
2134.81	0.00476043
2144.45	0.00674369
2154.1	0.00299529
2163.74	0.00544747
2173.38	0.00242187
2183.02	0.00913825
2192.67	0.00466425
2202.31	0.0075314
2211.95	0.00957353
2221.59	0.0109455
2231.24	0.00866334
2240.88	0.00832021
2250.52	0.00898481
2260.16	0.012069
2269.8	0.0110074
2279.45	0.0122772
2289.09	0.0137419
2298.73	0.0135723
2308.38	0.0128289
2318.02	0.0133987
2327.66	0.0142556
2337.3	0.0141014
2346.94	0.0140487
2356.59	0.0147978
2366.23	0.0142241
2375.87	0.0130922
2385.51	0.0145196
2395.16	0.0135837
2404.8	0.0128747
2414.44	0.0126704
2424.08	0.0130316
2433.72	0.0139079
2443.37	0.014957
2453.01	0.0155953
2462.65	0.015037
2472.29	0.015426
2481.94	0.0146503
2491.58	0.0146676
2501.22	0.0152076
2510.86	0.0145195
2520.51	0.0147799
2530.15	0.0154331
2539.79	0.0139977
2549.43	0.015987
2559.07	0.0154155
2568.72	0.0154716
2578.36	0.015499
2588	0.0154062
2597.64	0.0168058
2607.29	0.0163182
2616.93	0.0171081
2626.57	0.0180014
2636.21	0.0177642
2645.86	0.0169737
2655.5	0.017433
2665.14	0.0175165
2674.78	0.0174339
2684.43	0.0178966
2694.07	0.0183415
2703.71	0.0185217
2713.35	0.0185046
2722.99	0.0188321
2732.64	0.0195641
2742.28	0.0188072
2751.92	0.0202691
2761.56	0.0192196
2771.21	0.020465
2780.85	0.0204286
2790.49	0.0212143
2800.13	0.0212178
2809.78	0.0219089
2819.42	0.0215546
2829.06	0.0212981
2838.7	0.021907
2848.34	0.021787
2857.99	0.021715
2867.63	0.0213576
2877.27	0.0226004
2886.91	0.0224287
2896.56	0.023474
2906.2	0.0239459
2915.84	0.0240899
2925.48	0.0242032
2935.13	0.023552
2944.77	0.0241324
2954.41	0.0261277
2964.05	0.0263308
2973.7	0.0266885
2983.34	0.0271093
2992.98	0.0278832
3002.62	0.0285615
3012.26	0.0317562
3021.91	0.0313019
3031.55	0.0301675
3041.19	0.0308627
3050.83	0.0316432
3060.48	0.0341137
3070.12	0.0333379
3079.76	0.0354762
3089.4	0.0377177
3099.05	0.0345276
3108.69	0.0365557
3118.33	0.0389523
3127.97	0.0401359
3137.61	0.0384915
3147.26	0.0388271
3156.9	0.0384307
3166.54	0.0418777
3176.18	0.0428829
3185.83	0.0440363
3195.47	0.0438853
3205.11	0.0434769
3214.75	0.0448788
3224.4	0.0478043
3234.04	0.049699
3243.68	0.0471533
3253.32	0.0465101
3262.97	0.0476841
3272.61	0.0477665
3282.25	0.0497973
3291.89	0.0485451
3301.53	0.0499293
3311.18	0.0503489
3320.82	0.0467628
3330.46	0.0429426
3340.1	0.0455995
3349.75	0.0449174
3359.39	0.035781
3369.03	0.0396218
3378.67	0.0386712
3388.32	0.0334966
3397.96	0.0336652
3407.6	0.031056
3417.24	0.0325148
3426.89	0.033107
3436.53	0.0324202
3446.17	0.030454
3455.81	0.0294069
3465.45	0.0289421
3475.1	0.0263006
3484.74	0.0275336
3494.38	0.0253803
3504.02	0.0267471
3513.67	0.026783
3523.31	0.0270357
3532.95	0.0299073
3542.59	0.0255899
3552.24	0.0249603
3561.88	0.0260861
3571.52	0.0244026
3581.16	0.0282443
3590.8	0.0223663
3600.45	0.022998
3610.09	0.0260052
3619.73	0.0248274
3629.37	0.0208844
3639.02	0.0237084
3648.66	0.0232312
3658.3	0.021211
3667.94	0.0221305
3677.59	0.0220137
3687.23	0.0224236
3696.87	0.0208352
3706.51	0.0213649
3716.16	0.0202265
3725.8	0.0215365
3735.44	0.0216769
3745.08	0.0229979
3754.72	0.0208807
3764.37	0.0218217
3774.01	0.0226361
3783.65	0.0208433
3793.29	0.0218009
3802.94	0.0206501
3812.58	0.0227714
3822.22	0.0194821
3831.86	0.0246441
3841.51	0.0215218
3851.15	0.0217953
3860.79	0.0210176
3870.43	0.0251282
3880.07	0.0234239
3889.72	0.020147
3899.36	0.0227763
3909	0.0230368
3918.64	0.0256185
3928.29	0.0211724
3937.93	0.0244266
3947.57	0.0212096
3957.21	0.0261508
3966.86	0.0243238
3976.5	0.0250734
3986.14	0.0277861
3995.78	0.0275703
