Measurement: Infrared, Infrared Data Processed
Mineral: Yttrotantalite-(Y)
Rruff sample: R060022
Ideal chemistry: (Y^3+^,U^6+^,Fe^2+^)(Ta^5+^,Nb^5+^)_2_(O,OH)_4_
Locality: Swaziland
Source: American Museum of Natural History
Description: Brown glassy amorphous, note that a fragment of this sample was heated and is posted at R080046
Measured chemistry: (Y_0.53_Ca_0.47_)_Σ=1_(Ta_0.89_Nb_0.62_Fe_0.32_Mn_0.06_U_0.05_Ti_0.03_Th_0.02_)_Σ=2_(O_5.28_(OH)_0.72_)_Σ=6_
x	intensity
399.193	0.257665
408.835	0.24642
418.477	0.234341
428.12	0.236399
437.762	0.232368
447.404	0.233372
457.047	0.228265
466.689	0.228305
476.331	0.223864
485.974	0.227387
495.616	0.226983
505.258	0.227202
514.901	0.230752
524.543	0.233241
534.185	0.230697
543.828	0.235356
553.47	0.237006
563.112	0.237145
572.755	0.238241
582.397	0.236177
592.039	0.234836
601.682	0.232591
611.324	0.229076
620.966	0.222832
630.609	0.217408
640.251	0.212167
649.893	0.205158
659.536	0.198316
669.178	0.19097
678.82	0.181765
688.463	0.1737
698.105	0.163524
707.747	0.155399
717.39	0.145665
727.032	0.136952
736.674	0.128575
746.317	0.11995
755.959	0.111907
765.601	0.105614
775.244	0.0997751
784.886	0.0952723
794.528	0.0926842
804.171	0.0907671
813.813	0.089461
823.455	0.0867736
833.098	0.0838858
842.74	0.0814024
852.382	0.0762266
862.025	0.0725713
871.667	0.0681378
881.309	0.0629753
890.952	0.059129
900.594	0.0549444
910.236	0.051554
919.879	0.048349
929.521	0.0455163
939.163	0.0427669
948.806	0.0407676
958.448	0.0397068
968.09	0.0383421
977.733	0.0362149
987.375	0.0349257
997.017	0.0323672
1006.66	0.0305382
1016.3	0.028918
1025.94	0.0272783
1035.59	0.0266034
1045.23	0.0266336
1054.87	0.0263096
1064.51	0.0254697
1074.16	0.0251185
1083.8	0.0236372
1093.44	0.0231544
1103.08	0.0226121
1112.72	0.0218171
1122.37	0.0197969
1132.01	0.0189518
1141.65	0.0181332
1151.3	0.016967
1160.94	0.0165104
1170.58	0.0159106
1180.22	0.0152472
1189.86	0.0152974
1199.51	0.0150784
1209.15	0.01504
1218.79	0.0152829
1228.43	0.0153183
1238.08	0.0155063
1247.72	0.0156647
1257.36	0.0160281
1267	0.0167216
1276.64	0.0176927
1286.29	0.0177335
1295.93	0.0185515
1305.57	0.0195636
1315.21	0.0203337
1324.86	0.0209892
1334.5	0.0225892
1344.14	0.0233301
1353.78	0.0249054
1363.43	0.0263847
1373.07	0.0282147
1382.71	0.0301088
1392.35	0.0311701
1401.99	0.0327899
1411.64	0.0343507
1421.28	0.0357417
1430.92	0.0368513
1440.57	0.037025
1450.21	0.0379087
1459.85	0.0382904
1469.49	0.0388012
1479.13	0.0380306
1488.78	0.0385463
1498.42	0.0382765
1508.06	0.0382931
1517.7	0.0382247
1527.35	0.0375528
1536.99	0.0376287
1546.63	0.037674
1556.27	0.0380894
1565.91	0.037169
1575.56	0.0377202
1585.2	0.0383739
1594.84	0.0381347
1604.48	0.0385859
1614.13	0.0392622
1623.77	0.0394229
1633.41	0.0400377
1643.05	0.0400109
1652.7	0.0402838
1662.34	0.0406835
1671.98	0.0406004
1681.62	0.0410467
1691.27	0.0407424
1700.91	0.0416223
1710.55	0.0418544
1720.19	0.0422744
1729.84	0.0434417
1739.48	0.0438862
1749.12	0.0435467
1758.76	0.0441073
1768.4	0.0441378
1778.05	0.044432
1787.69	0.0456329
1797.33	0.0457835
1806.97	0.04594
1816.62	0.0454739
1826.26	0.046225
1835.9	0.0479876
1845.54	0.0484916
1855.18	0.0482682
1864.83	0.0488679
1874.47	0.0497059
1884.11	0.0503663
1893.75	0.0502765
1903.4	0.0501724
1913.04	0.0508447
1922.68	0.0501641
1932.32	0.0494446
1941.97	0.0503472
1951.61	0.0503518
1961.25	0.0532769
1970.89	0.054095
1980.54	0.0550902
1990.18	0.0536333
1999.82	0.053039
2009.46	0.050963
2019.11	0.0559339
2028.75	0.0548356
2038.39	0.0574838
2048.03	0.0562412
2057.67	0.0572558
2067.32	0.0563945
2076.96	0.0597965
2086.6	0.058039
2096.24	0.0607848
2105.89	0.0614045
2115.53	0.0595836
2125.17	0.059312
2134.81	0.0579406
2144.45	0.0586114
2154.1	0.0569657
2163.74	0.0621828
2173.38	0.0636033
2183.02	0.0628274
2192.67	0.0673236
2202.31	0.0655021
2211.95	0.0642269
2221.59	0.0661545
2231.24	0.0670182
2240.88	0.0669138
2250.52	0.068532
2260.16	0.067984
2269.8	0.066005
2279.45	0.0691634
2289.09	0.0696176
2298.73	0.0691951
2308.38	0.0680872
2318.02	0.0710336
2327.66	0.0715694
2337.3	0.0704459
2346.94	0.0708419
2356.59	0.0722849
2366.23	0.0715471
2375.87	0.072169
2385.51	0.0712102
2395.16	0.0711382
2404.8	0.0736933
2414.44	0.0745098
2424.08	0.0729766
2433.72	0.0739208
2443.37	0.0762634
2453.01	0.0777157
2462.65	0.0765973
2472.29	0.0759492
2481.94	0.077938
2491.58	0.0760234
2501.22	0.0774916
2510.86	0.0774367
2520.51	0.0815427
2530.15	0.0793103
2539.79	0.0794515
2549.43	0.0819209
2559.07	0.0796987
2568.72	0.0808126
2578.36	0.0821497
2588	0.081144
2597.64	0.0824852
2607.29	0.0825318
2616.93	0.0836867
2626.57	0.0835147
2636.21	0.0847347
2645.86	0.0847908
2655.5	0.0866089
2665.14	0.0859589
2674.78	0.0853907
2684.43	0.0860751
2694.07	0.0866036
2703.71	0.0858989
2713.35	0.0869585
2722.99	0.0878836
2732.64	0.0886251
2742.28	0.0883508
2751.92	0.0890506
2761.56	0.0902564
2771.21	0.0902367
2780.85	0.090997
2790.49	0.0927158
2800.13	0.0917537
2809.78	0.0927435
2819.42	0.0925284
2829.06	0.0932095
2838.7	0.095004
2848.34	0.0960344
2857.99	0.0969786
2867.63	0.0972156
2877.27	0.0984696
2886.91	0.0998773
2896.56	0.101673
2906.2	0.103043
2915.84	0.103362
2925.48	0.104457
2935.13	0.101289
2944.77	0.101639
2954.41	0.104788
2964.05	0.103281
2973.7	0.101385
2983.34	0.101313
2992.98	0.102161
3002.62	0.100853
3012.26	0.102069
3021.91	0.101526
3031.55	0.103364
3041.19	0.103761
3050.83	0.102497
3060.48	0.103641
3070.12	0.104463
3079.76	0.105382
3089.4	0.10529
3099.05	0.10655
3108.69	0.103848
3118.33	0.104019
3127.97	0.106672
3137.61	0.104088
3147.26	0.104366
3156.9	0.105879
3166.54	0.104645
3176.18	0.105245
3185.83	0.106466
3195.47	0.106091
3205.11	0.10567
3214.75	0.10348
3224.4	0.105349
3234.04	0.107177
3243.68	0.106418
3253.32	0.105194
3262.97	0.105422
3272.61	0.107144
3282.25	0.104918
3291.89	0.106252
3301.53	0.102979
3311.18	0.102913
3320.82	0.105046
3330.46	0.102305
3340.1	0.104719
3349.75	0.105078
3359.39	0.0999167
3369.03	0.101878
3378.67	0.102186
3388.32	0.101323
3397.96	0.0996581
3407.6	0.099642
3417.24	0.099604
3426.89	0.0983181
3436.53	0.0961291
3446.17	0.0949865
3455.81	0.0925664
3465.45	0.095426
3475.1	0.0920131
3484.74	0.0937165
3494.38	0.0904309
3504.02	0.0895146
3513.67	0.0891264
3523.31	0.0886808
3532.95	0.0852613
3542.59	0.0847383
3552.24	0.0837363
3561.88	0.0837704
3571.52	0.0830287
3581.16	0.0779827
3590.8	0.0803403
3600.45	0.0823669
3610.09	0.0788907
3619.73	0.0811727
3629.37	0.079126
3639.02	0.0759256
3648.66	0.0766193
3658.3	0.0786127
3667.94	0.076868
3677.59	0.0754454
3687.23	0.0801296
3696.87	0.0769325
3706.51	0.0806353
3716.16	0.0781565
3725.8	0.077901
3735.44	0.0798189
3745.08	0.0789415
3754.72	0.0812019
3764.37	0.0760061
3774.01	0.0785671
3783.65	0.0759859
3793.29	0.0826018
3802.94	0.0787407
3812.58	0.0817
3822.22	0.0814462
3831.86	0.0801155
3841.51	0.0829272
3851.15	0.0860961
3860.79	0.0797271
3870.43	0.0842114
3880.07	0.0816164
3889.72	0.0833147
3899.36	0.083816
3909	0.0801404
3918.64	0.077887
3928.29	0.0808171
3937.93	0.0831505
3947.57	0.0849902
3957.21	0.083006
3966.86	0.0823441
3976.5	0.0813278
3986.14	0.0803395
3995.78	0.0837743
