Measurement: Infrared, Infrared Data Processed
Mineral: Zincite
Rruff sample: R050492
Ideal chemistry: Zn^2+^O
Locality: Franklin, Sussex County, New Jersey, USA
Source: California Institute of Technology
Description: Deep red massive
Measured chemistry: (Zn_0.96_Mn_0.04_)_Î£=1_O
x	intensity
374.123	0.493654
383.765	0.363638
393.407	0.339946
403.05	0.304014
412.692	0.277474
422.334	0.249158
431.976	0.224167
441.619	0.198432
451.261	0.174282
460.904	0.153338
470.546	0.135876
480.188	0.122252
489.83	0.109421
499.473	0.0986421
509.115	0.0873853
518.758	0.074987
528.4	0.0615702
538.042	0.051889
547.684	0.040529
557.327	0.0291446
566.969	0.0168863
576.611	0.00602844
586.254	0.00118136
595.896	-0.00309488
605.538	-0.00303836
615.181	-0.00252134
624.823	-0.0021926
634.466	-0.00156381
644.108	0.000704374
653.75	0.00156237
663.393	0.00201815
673.035	0.00226501
682.677	0.00208729
692.319	0.0018654
701.962	0.00119138
711.604	0.000420336
721.246	8.0023e-05
730.889	-0.000201873
740.531	-0.000647709
750.173	-0.00148119
759.816	-0.00154392
769.458	-0.00118969
779.101	-0.000502437
788.743	-0.000245556
798.385	0.000462543
808.028	0.00119947
817.67	0.00219556
827.312	0.0036123
836.955	0.00480612
846.597	0.00544126
856.239	0.00576091
865.881	0.00578706
875.524	0.00689425
885.166	0.00415117
894.808	0.00312463
904.451	0.00287285
914.093	0.00245896
923.736	0.00173875
933.378	0.00145616
943.02	0.00125451
952.663	0.00131537
962.305	0.00184677
971.947	0.00284375
981.59	0.00319035
991.232	0.00324032
1000.87	0.00318465
1010.52	0.00326721
1020.16	0.00323789
1029.8	0.00249567
1039.44	0.00213245
1049.09	0.00163137
1058.73	0.00116424
1068.37	0.0011474
1078.01	0.00115038
1087.65	0.00128449
1097.3	0.000802789
1106.94	0.000773124
1116.58	0.000573341
1126.22	0.00033588
1135.87	0.000151664
1145.51	0.000360292
1155.15	0.000428609
1164.79	0.000431474
1174.44	0.000241067
1184.08	0.000103395
1193.72	-0.000102148
1203.36	-0.00015692
1213.01	-4.41968e-05
1222.65	-3.80278e-05
1232.29	4.13209e-05
1241.93	0.000185035
1251.58	0.00020938
1261.22	0.000429645
1270.86	0.000811987
1280.5	0.00111942
1290.14	0.000911351
1299.79	0.00113222
1309.43	0.00145283
1319.07	0.00183281
1328.71	0.00247731
1338.36	0.00310096
1348	0.00422151
1357.64	0.00516559
1367.28	0.00689191
1376.92	0.00862711
1386.57	0.0104354
1396.21	0.0129145
1405.85	0.015283
1415.49	0.0175097
1425.14	0.0188241
1434.78	0.0194704
1444.42	0.0191198
1454.06	0.0185288
1463.71	0.017419
1473.35	0.0163495
1482.99	0.0151381
1492.63	0.0140398
1502.28	0.0128649
1511.92	0.0112577
1521.56	0.0102041
1531.2	0.00909557
1540.85	0.00813374
1550.49	0.00755264
1560.13	0.00699186
1569.77	0.00640809
1579.41	0.00560446
1589.06	0.00504347
1598.7	0.0048704
1608.34	0.00396179
1617.98	0.00337959
1627.63	0.00285975
1637.27	0.00240855
1646.91	0.00248408
1656.55	0.0020371
1666.19	0.00206506
1675.84	0.00163436
1685.48	0.00179395
1695.12	0.00161885
1704.77	0.00152616
1714.41	0.00147715
1724.05	0.00193123
1733.69	0.00203596
1743.33	0.000759017
1752.98	0.000233356
1762.62	5.1748e-05
1772.26	-9.57586e-05
1781.9	0.000128359
1791.55	-6.31139e-05
1801.19	-0.000280693
1810.83	-0.000303514
1820.47	-0.000103965
1830.12	-3.89591e-05
1839.76	-0.000372931
1849.4	-0.000106797
1859.04	0.000252105
1868.68	1.37836e-05
1878.33	-0.00018011
1887.97	0.000102885
1897.61	0.000486948
1907.25	-5.31226e-06
1916.9	-0.000507563
1926.54	-4.52399e-05
1936.18	-0.000209309
1945.82	-7.17714e-05
1955.46	0.00010781
1965.11	-0.00148356
1974.75	-0.00218119
1984.39	3.22983e-05
1994.04	0.000136286
2003.68	-0.000819907
2013.32	-1.20699e-05
2022.96	-0.000427626
2032.6	0.000676446
2042.25	0.0012821
2051.89	0.00113515
2061.53	0.00127367
2071.17	0.00173416
2080.82	0.00188976
2090.46	0.00164595
2100.1	0.00222307
2109.74	0.00155904
2119.39	0.00118184
2129.03	-0.00059557
2138.67	-0.00115865
2148.31	-0.000570096
2157.95	-0.00466015
2167.6	-0.000365958
2177.24	0.000251695
2186.88	0.000551298
2196.52	-0.000730753
2206.17	-0.000641994
2215.81	0.000318743
2225.45	-0.000334158
2235.09	-0.000335947
2244.74	-0.000216618
2254.38	0.00018961
2264.02	1.19284e-05
2273.66	0.000653781
2283.3	0.00133611
2292.95	0.00111768
2302.59	0.00080888
2312.23	0.00126299
2321.87	0.00245967
2331.52	0.00120647
2341.16	0.00125799
2350.8	0.000616588
2360.44	0.000798628
2370.09	0.000112154
2379.73	0.000116952
2389.37	-0.000618532
2399.01	-6.32405e-05
2408.66	0.000450604
2418.3	7.12126e-05
2427.94	0.000261642
2437.58	0.000534363
2447.22	-0.000284568
2456.87	0.000203036
2466.51	0.000205547
2476.15	6.29798e-05
2485.79	-1.72406e-05
2495.44	0.00020203
2505.08	-0.000279307
2514.72	-0.000111684
2524.36	-0.000179961
2534.01	-0.000709273
2543.65	-8.87513e-05
2553.29	-0.000431359
2562.93	-0.000146612
2572.57	-6.99088e-05
2582.22	-6.35832e-05
2591.86	-4.69834e-05
2601.5	0.000325806
2611.14	0.000358477
2620.79	0.000389502
2630.43	0.000493936
2640.07	0.000455432
2649.71	0.000187315
2659.36	0.000370413
2669	-0.000128813
2678.64	8.47131e-05
2688.28	-7.61673e-05
2697.93	-7.79927e-05
2707.57	0.000139967
2717.21	0.000103407
2726.85	0.000439577
2736.49	0.000116371
2746.14	4.45545e-05
2755.78	0.000298575
2765.42	0.000335664
2775.06	0.000432298
2784.71	0.000926234
2794.35	-1.03042e-05
2803.99	0.000608846
2813.63	0.000596456
2823.28	0.00102936
2832.92	0.00117796
2842.56	0.00179451
2852.2	0.00142093
2861.84	0.00196154
2871.49	0.00223245
2881.13	0.00209065
2890.77	0.00204281
2900.41	0.00240545
2910.06	0.00305787
2919.7	0.00250043
2929.34	0.00408577
2938.98	0.00279277
2948.62	0.00240055
2958.27	0.00233626
2967.91	0.00119466
2977.55	-5.59911e-05
2987.2	-0.000500448
2996.84	-0.000262432
3006.48	3.07336e-05
3016.12	-0.00244888
3025.76	0.000344589
3035.41	-0.000265785
3045.05	1.72555e-05
3054.69	0.000237823
3064.33	-0.000150129
3073.98	-7.77394e-05
3083.62	-0.000204481
3093.26	0.000160225
3102.9	0.000131041
3112.55	-6.16312e-05
3122.19	-0.000182375
3131.83	0.0001086
3141.47	-0.00025776
3151.11	-6.77034e-05
3160.76	0.00029128
3170.4	0.000410557
3180.04	-0.000582971
3189.68	0.000243828
3199.33	-0.000417553
3208.97	0.00011082
3218.61	0.000329152
3228.25	-0.000278182
3237.9	-0.000205167
3247.54	-0.000677384
3257.18	-0.000371814
3266.82	-0.000287734
3276.47	-0.000235781
3286.11	-0.000651956
3295.75	-0.000483826
3305.39	-0.000157714
3315.03	-1.1012e-05
3324.68	-0.000194266
3334.32	0.000157028
3343.96	-5.22286e-05
3353.6	0.000166893
3363.25	1.72108e-05
3372.89	-0.00096406
3382.53	-0.00015822
3392.17	-0.000411272
3401.82	-0.00063619
3411.46	-0.000453368
3421.1	-0.000462249
3430.74	-0.000679806
3440.39	-0.000651434
3450.03	0.000550061
3459.67	-0.000269592
3469.31	-0.000459403
3478.95	-0.000486493
3488.6	-0.000722081
3498.24	-0.00112507
3507.88	0.000299856
3517.52	0.000141129
3527.17	0.000317544
3536.81	-6.20782e-05
3546.45	-0.000149921
3556.09	-3.8147e-06
3565.74	-0.000260219
3575.38	0.000359416
3585.02	-0.00028035
3594.66	-0.000547573
3604.3	-0.000247538
3613.95	-0.00072965
3623.59	-0.000208944
3633.23	0.000826895
3642.87	-0.000201687
3652.52	-0.00038068
3662.16	-0.000337988
3671.8	4.37051e-05
3681.44	0.000322729
3691.09	1.04457e-05
3700.73	-0.000212878
3710.37	-0.00128508
3720.01	-0.000321209
3729.66	-0.000197813
3739.3	-0.000657693
3748.94	-0.000632167
3758.58	-0.000727579
3768.22	-7.50422e-05
3777.87	-0.00101954
3787.51	-0.000119731
3797.15	0.000341579
3806.79	-0.00112179
3816.44	-0.0010514
3826.08	-0.000354037
3835.72	3.67165e-05
3845.36	-0.000992268
3855.01	-9.85265e-05
3864.65	0.000645757
3874.29	0.00101435
3883.93	0.000842094
3893.57	0.00105931
3903.22	-0.000237361
3912.86	0.00136013
3922.5	0.000455528
3932.14	0.000354782
3941.79	0.000763833
3951.43	0.000609502
3961.07	0.000523552
3970.71	0.000229806
3980.36	0.000145137
3990	8.35508e-05
3999.64	-0.00130448
