Measurement: Infrared, Infrared Data Processed
Mineral: Zircon
Rruff sample: R050034
Ideal chemistry: Zr^4+^SiO_4_
Locality: Oaxaca, Mexico
Source: University of Arizona Mineral Museum
Description: Reddish brown single crystal fragments
Measured chemistry: Zr_1.00_Si_1.00_O_4_
x	intensity
399.193	0.155858
408.835	0.121761
418.477	0.115712
428.12	0.160843
437.762	0.12711
447.404	0.0910637
457.047	0.065427
466.689	0.0452672
476.331	0.0327836
485.974	0.0296498
495.616	0.032864
505.258	0.0359272
514.901	0.0390319
524.543	0.0427864
534.185	0.0456558
543.828	0.0495264
553.47	0.053498
563.112	0.0616212
572.755	0.0747045
582.397	0.0890773
592.039	0.114489
601.682	0.150089
611.324	0.165932
620.966	0.132596
630.609	0.0963778
640.251	0.0759868
649.893	0.0709226
659.536	0.0703896
669.178	0.0737795
678.82	0.0792836
688.463	0.0849444
698.105	0.0898757
707.747	0.095388
717.39	0.103805
727.032	0.112515
736.674	0.121525
746.317	0.132036
755.959	0.144246
765.601	0.160024
775.244	0.175384
784.886	0.189293
794.528	0.192854
804.171	0.196737
813.813	0.215663
823.455	0.233527
833.098	0.252227
842.74	0.2704
852.382	0.283641
862.025	0.291047
871.667	0.295017
881.309	0.287388
890.952	0.274924
900.594	0.260932
910.236	0.246214
919.879	0.232585
929.521	0.218735
939.163	0.204651
948.806	0.195508
958.448	0.186072
968.09	0.17768
977.733	0.16675
987.375	0.152544
997.017	0.136889
1006.66	0.121332
1016.3	0.103955
1025.94	0.0869072
1035.59	0.0773954
1045.23	0.0702656
1054.87	0.0611635
1064.51	0.0510905
1074.16	0.041615
1083.8	0.032908
1093.44	0.0267971
1103.08	0.0221982
1112.72	0.0196367
1122.37	0.0174653
1132.01	0.0155468
1141.65	0.0134422
1151.3	0.0132842
1160.94	0.0117619
1170.58	0.009763
1180.22	0.00821083
1189.86	0.00755967
1199.51	0.00728736
1209.15	0.00658955
1218.79	0.00646698
1228.43	0.00600149
1238.08	0.00585537
1247.72	0.00602516
1257.36	0.00626538
1267	0.00632766
1276.64	0.00684193
1286.29	0.00700275
1295.93	0.00719427
1305.57	0.00741746
1315.21	0.0078524
1324.86	0.00803557
1334.5	0.00834187
1344.14	0.0088488
1353.78	0.00932776
1363.43	0.00954457
1373.07	0.00981962
1382.71	0.0105893
1392.35	0.011578
1401.99	0.012737
1411.64	0.0139487
1421.28	0.0151471
1430.92	0.0158219
1440.57	0.0162355
1450.21	0.0167214
1459.85	0.016545
1469.49	0.0159207
1479.13	0.0152089
1488.78	0.0150931
1498.42	0.0145
1508.06	0.0144814
1517.7	0.0146357
1527.35	0.0148244
1536.99	0.0150355
1546.63	0.0155068
1556.27	0.0156537
1565.91	0.0160552
1575.56	0.0163939
1585.2	0.0172085
1594.84	0.0172096
1604.48	0.0172021
1614.13	0.0173618
1623.77	0.0174628
1633.41	0.0173006
1643.05	0.0175302
1652.7	0.0178085
1662.34	0.0176066
1671.98	0.0174002
1681.62	0.0177298
1691.27	0.0178325
1700.91	0.0175679
1710.55	0.0171545
1720.19	0.0178154
1729.84	0.0181035
1739.48	0.0182866
1749.12	0.0188525
1758.76	0.0189219
1768.4	0.0194251
1778.05	0.0200303
1787.69	0.0208383
1797.33	0.0207839
1806.97	0.0206332
1816.62	0.0205041
1826.26	0.0213352
1835.9	0.0207182
1845.54	0.021554
1855.18	0.0218143
1864.83	0.021214
1874.47	0.022407
1884.11	0.0218187
1893.75	0.0215175
1903.4	0.0223663
1913.04	0.0225212
1922.68	0.0222976
1932.32	0.0227476
1941.97	0.0219777
1951.61	0.0218298
1961.25	0.0217794
1970.89	0.0206859
1980.54	0.0259776
1990.18	0.0228104
1999.82	0.0240911
2009.46	0.0230054
2019.11	0.0213454
2028.75	0.0261593
2038.39	0.0252303
2048.03	0.0270802
2057.67	0.0267014
2067.32	0.025733
2076.96	0.0294081
2086.6	0.0279
2096.24	0.0288114
2105.89	0.0288625
2115.53	0.0284633
2125.17	0.0287792
2134.81	0.0281303
2144.45	0.0288713
2154.1	0.0253053
2163.74	0.0334021
2173.38	0.0332887
2183.02	0.0320868
2192.67	0.0346264
2202.31	0.0330387
2211.95	0.0326693
2221.59	0.0359869
2231.24	0.033612
2240.88	0.0339957
2250.52	0.0339654
2260.16	0.035541
2269.8	0.0355596
2279.45	0.0370204
2289.09	0.036553
2298.73	0.0367585
2308.38	0.0368031
2318.02	0.0377727
2327.66	0.0364048
2337.3	0.0365118
2346.94	0.0370945
2356.59	0.03675
2366.23	0.0362135
2375.87	0.0372439
2385.51	0.0375655
2395.16	0.0373891
2404.8	0.0377496
2414.44	0.0382287
2424.08	0.0380117
2433.72	0.0393403
2443.37	0.0382832
2453.01	0.0392735
2462.65	0.0396598
2472.29	0.0394281
2481.94	0.039636
2491.58	0.0395233
2501.22	0.0399202
2510.86	0.0399378
2520.51	0.0399936
2530.15	0.0398917
2539.79	0.0411816
2549.43	0.0413016
2559.07	0.0408005
2568.72	0.0419415
2578.36	0.0417564
2588	0.0422889
2597.64	0.0425065
2607.29	0.0429477
2616.93	0.0432804
2626.57	0.0435316
2636.21	0.0429969
2645.86	0.0429146
2655.5	0.0433277
2665.14	0.0428593
2674.78	0.0425254
2684.43	0.043404
2694.07	0.0437085
2703.71	0.0431628
2713.35	0.0429858
2722.99	0.0435206
2732.64	0.044117
2742.28	0.0444228
2751.92	0.0447398
2761.56	0.045056
2771.21	0.045163
2780.85	0.0458642
2790.49	0.0452261
2800.13	0.0457167
2809.78	0.04624
2819.42	0.0466047
2829.06	0.0467397
2838.7	0.0479298
2848.34	0.0468379
2857.99	0.0470372
2867.63	0.0465386
2877.27	0.0478271
2886.91	0.0482232
2896.56	0.0484473
2906.2	0.048121
2915.84	0.0486435
2925.48	0.0480482
2935.13	0.0464125
2944.77	0.0483261
2954.41	0.0474063
2964.05	0.0480879
2973.7	0.0487676
2983.34	0.0493909
2992.98	0.0494653
3002.62	0.0500662
3012.26	0.0509913
3021.91	0.0505214
3031.55	0.0508032
3041.19	0.0502757
3050.83	0.0514959
3060.48	0.0515754
3070.12	0.0510806
3079.76	0.05219
3089.4	0.0520365
3099.05	0.0516704
3108.69	0.0518499
3118.33	0.0524458
3127.97	0.0524478
3137.61	0.0527247
3147.26	0.0535456
3156.9	0.0526783
3166.54	0.0530335
3176.18	0.0541009
3185.83	0.0537578
3195.47	0.0541817
3205.11	0.0524953
3214.75	0.0538435
3224.4	0.0535948
3234.04	0.0542508
3243.68	0.053764
3253.32	0.0540253
3262.97	0.0544829
3272.61	0.0546749
3282.25	0.0559168
3291.89	0.0537745
3301.53	0.0548153
3311.18	0.054897
3320.82	0.0538112
3330.46	0.0544914
3340.1	0.054821
3349.75	0.0552572
3359.39	0.056195
3369.03	0.0559914
3378.67	0.0562701
3388.32	0.0565341
3397.96	0.0562754
3407.6	0.0554646
3417.24	0.0563674
3426.89	0.0572407
3436.53	0.0559179
3446.17	0.0561131
3455.81	0.0567079
3465.45	0.0575615
3475.1	0.059583
3484.74	0.0606002
3494.38	0.0606524
3504.02	0.058108
3513.67	0.0581038
3523.31	0.0593303
3532.95	0.0583262
3542.59	0.0568817
3552.24	0.0580656
3561.88	0.059076
3571.52	0.061593
3581.16	0.0590981
3590.8	0.0599548
3600.45	0.057744
3610.09	0.0592937
3619.73	0.0560511
3629.37	0.0589256
3639.02	0.0574168
3648.66	0.0579566
3658.3	0.0580695
3667.94	0.056927
3677.59	0.0578717
3687.23	0.0594507
3696.87	0.0599116
3706.51	0.0579632
3716.16	0.0581633
3725.8	0.0592401
3735.44	0.058023
3745.08	0.0598361
3754.72	0.0585819
3764.37	0.0576984
3774.01	0.0600506
3783.65	0.0607662
3793.29	0.0605709
3802.94	0.0616852
3812.58	0.0603223
3822.22	0.0614906
3831.86	0.0606073
3841.51	0.0608481
3851.15	0.0607006
3860.79	0.0578221
3870.43	0.0604105
3880.07	0.061703
3889.72	0.0626936
3899.36	0.0604067
3909	0.0614096
3918.64	0.0611081
3928.29	0.0599594
3937.93	0.0605729
3947.57	0.0627926
3957.21	0.0608293
3966.86	0.0631431
3976.5	0.0630714
3986.14	0.0622059
3995.78	0.0629385
