Measurement: Infrared, Infrared Data Processed
Mineral: Zunyite
Rruff sample: R050263
Ideal chemistry: Al_13_Si_5_O_20_(OH,F)_18_Cl
Locality: Ruby Mountain, Tintic District, Utah, USA
Source: Marcus Origlieri
Description: Colorless tetrahedral crystals
Measured chemistry: Al_13.00_Si_5.00_O_20_((OH)_14.80_F_3.20_)_Σ=18_Cl_1.00_ ; gray phase. (Al_12.92_Fe^3+^_0.08_)_Σ=13_Si_5.00_O_20_((OH)_14.86_F_3.14_)_Σ=18_Cl_1.00_ rim, lighter phase
x	intensity
399.193	0.285998
408.835	0.274362
418.477	0.284097
428.12	0.301295
437.762	0.315162
447.404	0.323548
457.047	0.273566
466.689	0.239724
476.331	0.250302
485.974	0.214189
495.616	0.162159
505.258	0.122977
514.901	0.111636
524.543	0.12086
534.185	0.130874
543.828	0.135346
553.47	0.131267
563.112	0.13373
572.755	0.151636
582.397	0.182518
592.039	0.21303
601.682	0.237332
611.324	0.258102
620.966	0.270529
630.609	0.273963
640.251	0.262864
649.893	0.239807
659.536	0.213099
669.178	0.187892
678.82	0.164798
688.463	0.152327
698.105	0.173702
707.747	0.249738
717.39	0.269373
727.032	0.211931
736.674	0.157213
746.317	0.121061
755.959	0.0947205
765.601	0.0706127
775.244	0.0542267
784.886	0.0502371
794.528	0.0470525
804.171	0.0471155
813.813	0.0467093
823.455	0.0461574
833.098	0.0446392
842.74	0.0449149
852.382	0.0504664
862.025	0.065977
871.667	0.102902
881.309	0.166016
890.952	0.20395
900.594	0.177666
910.236	0.124231
919.879	0.081548
929.521	0.057086
939.163	0.0456271
948.806	0.0438987
958.448	0.0482424
968.09	0.0620809
977.733	0.113354
987.375	0.198273
997.017	0.210399
1006.66	0.130238
1016.3	0.0717661
1025.94	0.0514804
1035.59	0.0528343
1045.23	0.0703848
1054.87	0.11722
1064.51	0.134024
1074.16	0.0881239
1083.8	0.0632873
1093.44	0.0529348
1103.08	0.0539136
1112.72	0.0679716
1122.37	0.109755
1132.01	0.147
1141.65	0.126137
1151.3	0.0847414
1160.94	0.0841904
1170.58	0.147302
1180.22	0.126913
1189.86	0.0593986
1199.51	0.031326
1209.15	0.0209313
1218.79	0.0164536
1228.43	0.0137578
1238.08	0.0122018
1247.72	0.0100249
1257.36	0.00902865
1267	0.00839073
1276.64	0.00819137
1286.29	0.00779208
1295.93	0.00771339
1305.57	0.00731232
1315.21	0.00675239
1324.86	0.00760219
1334.5	0.00739632
1344.14	0.00784509
1353.78	0.00829908
1363.43	0.00875822
1373.07	0.00919336
1382.71	0.00967187
1392.35	0.0109774
1401.99	0.0128965
1411.64	0.0152594
1421.28	0.01867
1430.92	0.0218136
1440.57	0.0244032
1450.21	0.0268609
1459.85	0.027948
1469.49	0.0281432
1479.13	0.0269849
1488.78	0.0239323
1498.42	0.0217158
1508.06	0.0186519
1517.7	0.0151911
1527.35	0.0135253
1536.99	0.012095
1546.63	0.0110922
1556.27	0.0107014
1565.91	0.0103655
1575.56	0.00999676
1585.2	0.0102426
1594.84	0.0104822
1604.48	0.0101272
1614.13	0.0104077
1623.77	0.0107078
1633.41	0.0104941
1643.05	0.0108311
1652.7	0.0102144
1662.34	0.0097157
1671.98	0.00958982
1681.62	0.00905101
1691.27	0.00917889
1700.91	0.00859605
1710.55	0.00851807
1720.19	0.00808967
1729.84	0.00775855
1739.48	0.00648761
1749.12	0.0064688
1758.76	0.00754363
1768.4	0.00821085
1778.05	0.0081797
1787.69	0.00808693
1797.33	0.00867931
1806.97	0.00885096
1816.62	0.00965632
1826.26	0.00917996
1835.9	0.0088682
1845.54	0.00854683
1855.18	0.00958628
1864.83	0.00944141
1874.47	0.00974262
1884.11	0.00948713
1893.75	0.0102494
1903.4	0.00881316
1913.04	0.00967595
1922.68	0.00857954
1932.32	0.0095615
1941.97	0.00788116
1951.61	0.00713824
1961.25	0.00702705
1970.89	0.0023264
1980.54	0.00694927
1990.18	0.00642507
1999.82	0.00552451
2009.46	0.00442924
2019.11	0.00600111
2028.75	0.00796361
2038.39	0.0111064
2048.03	0.011171
2057.67	0.00995967
2067.32	0.0095799
2076.96	0.0105017
2086.6	0.0112139
2096.24	0.00872092
2105.89	0.010775
2115.53	0.00818155
2125.17	0.00572426
2134.81	0.00513576
2144.45	0.00554823
2154.1	0.00697404
2163.74	0.00994368
2173.38	0.00912414
2183.02	0.0142457
2192.67	0.0114096
2202.31	0.0122852
2211.95	0.0140117
2221.59	0.0147884
2231.24	0.0122811
2240.88	0.0145014
2250.52	0.0124703
2260.16	0.014588
2269.8	0.0136056
2279.45	0.0154589
2289.09	0.0177734
2298.73	0.0182484
2308.38	0.0170183
2318.02	0.015527
2327.66	0.0164846
2337.3	0.0144114
2346.94	0.0138907
2356.59	0.0141505
2366.23	0.0140428
2375.87	0.0135932
2385.51	0.0150725
2395.16	0.0145013
2404.8	0.0143274
2414.44	0.0141514
2424.08	0.0143559
2433.72	0.0146137
2443.37	0.0163589
2453.01	0.0174162
2462.65	0.0173221
2472.29	0.0170049
2481.94	0.0160419
2491.58	0.0156137
2501.22	0.017472
2510.86	0.0166292
2520.51	0.0172972
2530.15	0.0162287
2539.79	0.0157497
2549.43	0.0178521
2559.07	0.0176338
2568.72	0.0176036
2578.36	0.0160643
2588	0.0174506
2597.64	0.0168988
2607.29	0.0174389
2616.93	0.0190559
2626.57	0.0187202
2636.21	0.0185218
2645.86	0.018878
2655.5	0.0187287
2665.14	0.0178344
2674.78	0.0183786
2684.43	0.019242
2694.07	0.0188128
2703.71	0.0186705
2713.35	0.0188431
2722.99	0.0195556
2732.64	0.0195748
2742.28	0.0196044
2751.92	0.0204613
2761.56	0.0201622
2771.21	0.02108
2780.85	0.0208746
2790.49	0.0224694
2800.13	0.0209069
2809.78	0.0217362
2819.42	0.021763
2829.06	0.02096
2838.7	0.0216906
2848.34	0.0229723
2857.99	0.022753
2867.63	0.0230378
2877.27	0.02146
2886.91	0.0231812
2896.56	0.0224915
2906.2	0.0241054
2915.84	0.0240557
2925.48	0.0250109
2935.13	0.0244153
2944.77	0.0249923
2954.41	0.0258048
2964.05	0.026135
2973.7	0.0263118
2983.34	0.0268383
2992.98	0.0280291
3002.62	0.0287249
3012.26	0.0296793
3021.91	0.0311053
3031.55	0.0319402
3041.19	0.0312426
3050.83	0.0301805
3060.48	0.0313163
3070.12	0.0315761
3079.76	0.0317884
3089.4	0.0376383
3099.05	0.0349366
3108.69	0.0348894
3118.33	0.037031
3127.97	0.0387831
3137.61	0.0394521
3147.26	0.038689
3156.9	0.0411912
3166.54	0.041383
3176.18	0.0448357
3185.83	0.0443613
3195.47	0.045117
3205.11	0.0433944
3214.75	0.0435605
3224.4	0.0446482
3234.04	0.0470871
3243.68	0.050023
3253.32	0.0553503
3262.97	0.0656223
3272.61	0.075894
3282.25	0.0852802
3291.89	0.0968069
3301.53	0.11892
3311.18	0.145623
3320.82	0.166067
3330.46	0.172134
3340.1	0.155671
3349.75	0.128759
3359.39	0.09562
3369.03	0.074034
3378.67	0.0579873
3388.32	0.0440813
3397.96	0.035159
3407.6	0.0327884
3417.24	0.0319853
3426.89	0.036553
3436.53	0.034766
3446.17	0.0306005
3455.81	0.0329885
3465.45	0.0324701
3475.1	0.0299597
3484.74	0.028495
3494.38	0.0295162
3504.02	0.0267902
3513.67	0.0276917
3523.31	0.0280997
3532.95	0.0283034
3542.59	0.0262811
3552.24	0.0265728
3561.88	0.028806
3571.52	0.0292644
3581.16	0.0337097
3590.8	0.0293109
3600.45	0.0353776
3610.09	0.0425352
3619.73	0.0462783
3629.37	0.0710028
3639.02	0.0359027
3648.66	0.0239815
3658.3	0.0214306
3667.94	0.0191119
3677.59	0.0202525
3687.23	0.0204184
3696.87	0.0171898
3706.51	0.0196125
3716.16	0.0196629
3725.8	0.0214878
3735.44	0.0179364
3745.08	0.0243114
3754.72	0.019226
3764.37	0.0223223
3774.01	0.0209507
3783.65	0.0216863
3793.29	0.0221717
3802.94	0.0192062
3812.58	0.0246234
3822.22	0.0186796
3831.86	0.0229957
3841.51	0.0206816
3851.15	0.0211198
3860.79	0.0221921
3870.43	0.0209489
3880.07	0.0244946
3889.72	0.0195679
3899.36	0.0230533
3909	0.0213033
3918.64	0.0230885
3928.29	0.0204486
3937.93	0.0261508
3947.57	0.0210761
3957.21	0.0220068
3966.86	0.0250448
3976.5	0.0206239
3986.14	0.0276455
3995.78	0.0245281
