Measurement: Infrared, Infrared Data Processed
Mineral: Zwieselite
Rruff sample: R050279
Ideal chemistry: Fe^2+^_2_PO_4_F
Locality: Cornelia mine, Hagendorf, Bavaria, Germany
Source: Marcus Origlieri
Description: Brown massive associated with bluish-gray triphylite R050366
Measured chemistry: (Fe^2+^_1.08_Mn^2+^_0.86_Ca_0.06_)_Î£=2_(P_1.00_O_4_)F_1.00_
x	intensity
399.193	0.095653
408.835	0.0824004
418.477	0.0694835
428.12	0.0732955
437.762	0.100752
447.404	0.115271
457.047	0.0893727
466.689	0.0682957
476.331	0.063119
485.974	0.0605043
495.616	0.0548145
505.258	0.0541637
514.901	0.0548103
524.543	0.0641469
534.185	0.0859458
543.828	0.136051
553.47	0.229636
563.112	0.34925
572.755	0.357918
582.397	0.268004
592.039	0.190441
601.682	0.160951
611.324	0.126703
620.966	0.106891
630.609	0.069605
640.251	0.0446616
649.893	0.0357606
659.536	0.0314798
669.178	0.0289831
678.82	0.0283716
688.463	0.0277368
698.105	0.0275296
707.747	0.0280185
717.39	0.0284629
727.032	0.0285257
736.674	0.02914
746.317	0.0303953
755.959	0.0310498
765.601	0.0329629
775.244	0.034099
784.886	0.0367686
794.528	0.0389527
804.171	0.0416676
813.813	0.0435475
823.455	0.0457951
833.098	0.0494976
842.74	0.0538435
852.382	0.060776
862.025	0.0693224
871.667	0.0807401
881.309	0.0958117
890.952	0.115104
900.594	0.137919
910.236	0.162993
919.879	0.189945
929.521	0.222667
939.163	0.264537
948.806	0.314294
958.448	0.369998
968.09	0.427894
977.733	0.447584
987.375	0.524456
997.017	0.601119
1006.66	0.625096
1016.3	0.613066
1025.94	0.57295
1035.59	0.503544
1045.23	0.43223
1054.87	0.374843
1064.51	0.310244
1074.16	0.246333
1083.8	0.196616
1093.44	0.156411
1103.08	0.119555
1112.72	0.0911511
1122.37	0.0684779
1132.01	0.0470062
1141.65	0.0315032
1151.3	0.0231686
1160.94	0.0181576
1170.58	0.0152111
1180.22	0.0130626
1189.86	0.0115482
1199.51	0.00959231
1209.15	0.00834868
1218.79	0.00716485
1228.43	0.00637585
1238.08	0.00559514
1247.72	0.00525374
1257.36	0.00547341
1267	0.00494678
1276.64	0.00504654
1286.29	0.0049144
1295.93	0.0049687
1305.57	0.00470156
1315.21	0.00455739
1324.86	0.00477761
1334.5	0.00478322
1344.14	0.00489192
1353.78	0.00465084
1363.43	0.00470159
1373.07	0.00496023
1382.71	0.00557891
1392.35	0.00550267
1401.99	0.0057203
1411.64	0.00638688
1421.28	0.00679022
1430.92	0.00729665
1440.57	0.00710187
1450.21	0.00737106
1459.85	0.00745296
1469.49	0.00725443
1479.13	0.00673713
1488.78	0.00628609
1498.42	0.00681634
1508.06	0.00715561
1517.7	0.00703636
1527.35	0.00745124
1536.99	0.00820753
1546.63	0.00817316
1556.27	0.0087571
1565.91	0.00859431
1575.56	0.00932063
1585.2	0.00934487
1594.84	0.00952064
1604.48	0.00955605
1614.13	0.00934953
1623.77	0.0103578
1633.41	0.0102709
1643.05	0.0101435
1652.7	0.0104955
1662.34	0.00952966
1671.98	0.0096665
1681.62	0.00934318
1691.27	0.00888292
1700.91	0.00941323
1710.55	0.00922037
1720.19	0.00937091
1729.84	0.00914855
1739.48	0.0091593
1749.12	0.00816132
1758.76	0.00782483
1768.4	0.00826641
1778.05	0.00796854
1787.69	0.00764437
1797.33	0.00749426
1806.97	0.00809812
1816.62	0.00744499
1826.26	0.00821775
1835.9	0.00779132
1845.54	0.00790659
1855.18	0.00741736
1864.83	0.00689673
1874.47	0.00858939
1884.11	0.00785699
1893.75	0.00638635
1903.4	0.00708116
1913.04	0.00773523
1922.68	0.0061365
1932.32	0.00649299
1941.97	0.00410438
1951.61	0.0030826
1961.25	-0.00027237
1970.89	0.00217987
1980.54	0.00255311
1990.18	0.00415486
1999.82	0.0027345
2009.46	0.00357529
2019.11	-0.00168823
2028.75	0.00146414
2038.39	0.00308045
2048.03	0.00651716
2057.67	0.00708117
2067.32	0.00914508
2076.96	0.00609851
2086.6	0.00780854
2096.24	0.00671158
2105.89	0.00729646
2115.53	0.00835335
2125.17	0.00508502
2134.81	0.00212016
2144.45	-0.00130691
2154.1	-0.00176904
2163.74	0.00714409
2173.38	0.00589006
2183.02	0.00455506
2192.67	0.00590145
2202.31	0.00582755
2211.95	0.0101007
2221.59	0.0114935
2231.24	0.0137406
2240.88	0.0128252
2250.52	0.0128254
2260.16	0.0136963
2269.8	0.0149897
2279.45	0.0162106
2289.09	0.0172299
2298.73	0.0174987
2308.38	0.0164226
2318.02	0.0164098
2327.66	0.0140767
2337.3	0.0139237
2346.94	0.0148119
2356.59	0.0133482
2366.23	0.0124627
2375.87	0.0147073
2385.51	0.014722
2395.16	0.013805
2404.8	0.0144614
2414.44	0.0148647
2424.08	0.0167558
2433.72	0.0149664
2443.37	0.0161352
2453.01	0.0170238
2462.65	0.0183957
2472.29	0.0147265
2481.94	0.0173127
2491.58	0.0163332
2501.22	0.0156278
2510.86	0.0169485
2520.51	0.0159898
2530.15	0.0177283
2539.79	0.017646
2549.43	0.0185603
2559.07	0.0185665
2568.72	0.0179082
2578.36	0.0183967
2588	0.0190227
2597.64	0.019229
2607.29	0.0187265
2616.93	0.0203619
2626.57	0.0215056
2636.21	0.02018
2645.86	0.0203132
2655.5	0.0201589
2665.14	0.0201003
2674.78	0.0194844
2684.43	0.0193082
2694.07	0.0195878
2703.71	0.0208472
2713.35	0.021809
2722.99	0.0208253
2732.64	0.0213827
2742.28	0.0216834
2751.92	0.0204578
2761.56	0.0209171
2771.21	0.0220393
2780.85	0.0230184
2790.49	0.0221681
2800.13	0.0220964
2809.78	0.0244918
2819.42	0.0222908
2829.06	0.0245469
2838.7	0.0255948
2848.34	0.0256442
2857.99	0.0265071
2867.63	0.0253587
2877.27	0.0264535
2886.91	0.0272601
2896.56	0.0286109
2906.2	0.0284681
2915.84	0.0321292
2925.48	0.0322147
2935.13	0.0282719
2944.77	0.0294453
2954.41	0.0281636
2964.05	0.0294692
2973.7	0.0291349
2983.34	0.0279911
2992.98	0.0282183
3002.62	0.0285692
3012.26	0.0277473
3021.91	0.0293999
3031.55	0.0276229
3041.19	0.0290257
3050.83	0.030733
3060.48	0.0269185
3070.12	0.0303998
3079.76	0.0307051
3089.4	0.029081
3099.05	0.0313992
3108.69	0.0305193
3118.33	0.0317505
3127.97	0.0343627
3137.61	0.0297314
3147.26	0.0322314
3156.9	0.0343971
3166.54	0.0340031
3176.18	0.0342116
3185.83	0.0359805
3195.47	0.0341625
3205.11	0.0350631
3214.75	0.0352928
3224.4	0.0365202
3234.04	0.0352058
3243.68	0.0381975
3253.32	0.0362569
3262.97	0.0378651
3272.61	0.0366445
3282.25	0.0365406
3291.89	0.0382338
3301.53	0.0356397
3311.18	0.0381939
3320.82	0.0350843
3330.46	0.0381306
3340.1	0.0375617
3349.75	0.0366476
3359.39	0.0375012
3369.03	0.0367939
3378.67	0.0378658
3388.32	0.0401922
3397.96	0.0382701
3407.6	0.0374547
3417.24	0.0382177
3426.89	0.0399281
3436.53	0.0418821
3446.17	0.0381747
3455.81	0.0376139
3465.45	0.036332
3475.1	0.0434246
3484.74	0.0418358
3494.38	0.0395296
3504.02	0.0408599
3513.67	0.0370914
3523.31	0.0376974
3532.95	0.0355395
3542.59	0.0361744
3552.24	0.0342478
3561.88	0.0318457
3571.52	0.0273717
3581.16	0.0329476
3590.8	0.0289719
3600.45	0.0260458
3610.09	0.028888
3619.73	0.0279423
3629.37	0.0288522
3639.02	0.0297781
3648.66	0.027634
3658.3	0.0299859
3667.94	0.0291315
3677.59	0.0314726
3687.23	0.0339824
3696.87	0.0296361
3706.51	0.0281594
3716.16	0.0309072
3725.8	0.0287608
3735.44	0.0338002
3745.08	0.0372207
3754.72	0.0316364
3764.37	0.0325121
3774.01	0.0329663
3783.65	0.0369031
3793.29	0.0338086
3802.94	0.032137
3812.58	0.0307924
3822.22	0.0313556
3831.86	0.0301223
3841.51	0.0308716
3851.15	0.0366987
3860.79	0.0381487
3870.43	0.0338921
3880.07	0.0295807
3889.72	0.0353984
3899.36	0.0391153
3909	0.0335489
3918.64	0.0407408
3928.29	0.0334476
3937.93	0.0365667
3947.57	0.0325197
3957.21	0.0331893
3966.86	0.0375582
3976.5	0.0358259
3986.14	0.0300451
3995.78	0.0422047
